*SPEF "ieee 1481-1999"
*DESIGN "riscv32"
*DATE "11:11:11 Fri 11 11, 1111"
*VENDOR "OpenRCX"
*PROGRAM "Parallel Extraction"
*VERSION "1.0"
*DESIGN_FLOW "NAME_SCOPE LOCAL" "PIN_CAP NONE"
*DIVIDER /
*DELIMITER :
*BUS_DELIMITER []
*T_UNIT 1 NS
*C_UNIT 1 PF
*R_UNIT 1 OHM
*L_UNIT 1 HENRY

*NAME_MAP
*1 R0[0]
*2 R0[1]
*3 R0[2]
*4 R0[3]
*5 R1[0]
*6 R1[1]
*7 R1[2]
*8 R1[3]
*9 R2[0]
*10 R2[1]
*11 R2[2]
*12 R2[3]
*13 R3[0]
*14 R3[1]
*15 R3[2]
*16 R3[3]
*17 clk
*19 halt
*20 instr[0]
*21 instr[1]
*22 instr[2]
*23 instr[3]
*24 instr[4]
*25 instr[5]
*26 instr[6]
*27 instr[7]
*28 pc[0]
*29 pc[1]
*30 pc[2]
*31 pc[3]
*32 reset
*34 _000_
*35 _001_
*36 _002_
*37 _003_
*38 _004_
*39 _005_
*40 _006_
*41 _007_
*42 _008_
*43 _009_
*44 _010_
*45 _011_
*46 _012_
*47 _013_
*48 _014_
*49 _015_
*50 _016_
*51 _017_
*52 _018_
*53 _019_
*54 _020_
*55 _021_
*56 _022_
*57 _023_
*58 _024_
*59 _025_
*60 _026_
*61 _027_
*62 _028_
*63 _029_
*64 _030_
*65 _031_
*66 _032_
*67 _033_
*68 _034_
*69 _035_
*70 _036_
*71 _037_
*72 _038_
*73 _039_
*74 _040_
*75 _041_
*76 _042_
*77 _043_
*78 _044_
*79 _045_
*80 _046_
*81 _047_
*82 _048_
*83 _049_
*84 _050_
*85 _051_
*86 _052_
*87 _053_
*88 _054_
*89 _055_
*90 _056_
*91 _057_
*92 _058_
*93 _059_
*94 _060_
*95 _061_
*96 _062_
*97 _063_
*98 _064_
*99 _065_
*100 _066_
*101 _067_
*102 _068_
*103 _069_
*104 _070_
*105 _071_
*106 clknet_0_clk
*107 clknet_1_0__leaf_clk
*108 clknet_1_1__leaf_clk
*109 net1
*110 net10
*111 net11
*112 net12
*113 net13
*114 net14
*115 net15
*116 net16
*117 net17
*118 net18
*119 net19
*120 net2
*121 net20
*122 net21
*123 net22
*124 net23
*125 net24
*126 net25
*127 net26
*128 net27
*129 net28
*130 net29
*131 net3
*132 net30
*133 net31
*134 net32
*135 net33
*136 net34
*137 net35
*138 net36
*139 net37
*140 net38
*141 net39
*142 net4
*143 net40
*144 net41
*145 net42
*146 net43
*147 net44
*148 net45
*149 net46
*150 net5
*151 net6
*152 net7
*153 net8
*154 net9
*155 FILLER_0_0_20
*156 FILLER_0_0_3
*157 FILLER_0_0_37
*158 FILLER_0_0_49
*159 FILLER_0_0_62
*160 FILLER_0_0_66
*161 FILLER_0_0_79
*162 FILLER_0_0_83
*163 FILLER_0_0_91
*164 FILLER_0_10_12
*165 FILLER_0_10_26
*166 FILLER_0_10_43
*167 FILLER_0_10_51
*168 FILLER_0_10_57
*169 FILLER_0_10_68
*170 FILLER_0_10_79
*171 FILLER_0_10_83
*172 FILLER_0_10_85
*173 FILLER_0_11_10
*174 FILLER_0_11_57
*175 FILLER_0_11_69
*176 FILLER_0_11_81
*177 FILLER_0_11_93
*178 FILLER_0_12_29
*179 FILLER_0_12_3
*180 FILLER_0_12_41
*181 FILLER_0_12_49
*182 FILLER_0_12_85
*183 FILLER_0_13_11
*184 FILLER_0_13_23
*185 FILLER_0_13_28
*186 FILLER_0_13_3
*187 FILLER_0_13_36
*188 FILLER_0_13_48
*189 FILLER_0_13_52
*190 FILLER_0_13_70
*191 FILLER_0_14_37
*192 FILLER_0_15_15
*193 FILLER_0_15_26
*194 FILLER_0_15_29
*195 FILLER_0_15_37
*196 FILLER_0_15_49
*197 FILLER_0_15_55
*198 FILLER_0_15_63
*199 FILLER_0_15_72
*200 FILLER_0_15_82
*201 FILLER_0_15_91
*202 FILLER_0_1_55
*203 FILLER_0_1_57
*204 FILLER_0_1_83
*205 FILLER_0_1_9
*206 FILLER_0_1_90
*207 FILLER_0_2_27
*208 FILLER_0_2_40
*209 FILLER_0_2_73
*210 FILLER_0_2_77
*211 FILLER_0_2_9
*212 FILLER_0_2_93
*213 FILLER_0_3_18
*214 FILLER_0_3_27
*215 FILLER_0_3_3
*216 FILLER_0_3_40
*217 FILLER_0_3_57
*218 FILLER_0_3_68
*219 FILLER_0_3_76
*220 FILLER_0_4_19
*221 FILLER_0_4_27
*222 FILLER_0_4_29
*223 FILLER_0_4_40
*224 FILLER_0_4_47
*225 FILLER_0_4_59
*226 FILLER_0_4_63
*227 FILLER_0_4_74
*228 FILLER_0_4_85
*229 FILLER_0_5_17
*230 FILLER_0_5_29
*231 FILLER_0_5_3
*232 FILLER_0_5_36
*233 FILLER_0_5_43
*234 FILLER_0_5_55
*235 FILLER_0_6_29
*236 FILLER_0_6_3
*237 FILLER_0_6_37
*238 FILLER_0_6_45
*239 FILLER_0_6_49
*240 FILLER_0_6_65
*241 FILLER_0_6_72
*242 FILLER_0_6_76
*243 FILLER_0_6_93
*244 FILLER_0_7_28
*245 FILLER_0_7_51
*246 FILLER_0_7_55
*247 FILLER_0_7_57
*248 FILLER_0_7_66
*249 FILLER_0_7_74
*250 FILLER_0_7_92
*251 FILLER_0_8_23
*252 FILLER_0_8_37
*253 FILLER_0_8_68
*254 FILLER_0_8_93
*255 FILLER_0_9_15
*256 FILLER_0_9_3
*257 FILLER_0_9_48
*258 PHY_0
*259 PHY_1
*260 PHY_10
*261 PHY_11
*262 PHY_12
*263 PHY_13
*264 PHY_14
*265 PHY_15
*266 PHY_16
*267 PHY_17
*268 PHY_18
*269 PHY_19
*270 PHY_2
*271 PHY_20
*272 PHY_21
*273 PHY_22
*274 PHY_23
*275 PHY_24
*276 PHY_25
*277 PHY_26
*278 PHY_27
*279 PHY_28
*280 PHY_29
*281 PHY_3
*282 PHY_30
*283 PHY_31
*284 PHY_4
*285 PHY_5
*286 PHY_6
*287 PHY_7
*288 PHY_8
*289 PHY_9
*290 TAP_32
*291 TAP_33
*292 TAP_34
*293 TAP_35
*294 TAP_36
*295 TAP_37
*296 TAP_38
*297 TAP_39
*298 TAP_40
*299 TAP_41
*300 TAP_42
*301 TAP_43
*302 TAP_44
*303 TAP_45
*304 TAP_46
*305 TAP_47
*306 TAP_48
*307 TAP_49
*308 TAP_50
*309 TAP_51
*310 TAP_52
*311 TAP_53
*312 TAP_54
*313 TAP_55
*314 TAP_56
*315 TAP_57
*316 TAP_58
*317 _072_
*318 _073_
*319 _074_
*320 _075_
*321 _076_
*322 _077_
*323 _078_
*324 _079_
*325 _080_
*326 _081_
*327 _082_
*328 _083_
*329 _084_
*330 _085_
*331 _086_
*332 _087_
*333 _088_
*334 _089_
*335 _090_
*336 _091_
*337 _092_
*338 _093_
*339 _094_
*340 _095_
*341 _096_
*342 _097_
*343 _098_
*344 _099_
*345 _100_
*346 _101_
*347 _102_
*348 _103_
*349 _104_
*350 _105_
*351 _106_
*352 _107_
*353 _108_
*354 _109_
*355 _110_
*356 _111_
*357 _112_
*358 _113_
*359 _114_
*360 _115_
*361 _116_
*362 _117_
*363 _118_
*364 _119_
*365 _120_
*366 _121_
*367 _122_
*368 _123_
*369 _124_
*370 _125_
*371 _126_
*372 _127_
*373 _128_
*374 _129_
*375 _130_
*376 _131_
*377 _132_
*378 _133_
*379 _134_
*380 _135_
*381 _136_
*382 _137_
*383 _138_
*384 _139_
*385 _140_
*386 _141_
*387 _142_
*388 _143_
*389 _144_
*390 _145_
*391 _146_
*392 _147_
*393 _148_
*394 _149_
*395 _150_
*396 _151_
*397 _152_
*398 _153_
*399 _154_
*400 _155_
*401 _156_
*402 _157_
*403 _158_
*404 _159_
*405 _160_
*406 _161_
*407 _162_
*408 _163_
*409 _164_
*410 _165_
*411 _166_
*412 _167_
*413 _168_
*414 _169_
*415 _170_
*416 _171_
*417 _172_
*418 clkbuf_0_clk
*419 clkbuf_1_0__f_clk
*420 clkbuf_1_1__f_clk
*421 fanout31
*422 hold1
*423 hold10
*424 hold11
*425 hold12
*426 hold13
*427 hold14
*428 hold15
*429 hold2
*430 hold3
*431 hold4
*432 hold5
*433 hold6
*434 hold7
*435 hold8
*436 hold9
*437 input1
*438 output10
*439 output11
*440 output12
*441 output13
*442 output14
*443 output15
*444 output16
*445 output17
*446 output18
*447 output19
*448 output2
*449 output20
*450 output21
*451 output22
*452 output23
*453 output24
*454 output25
*455 output26
*456 output27
*457 output28
*458 output29
*459 output3
*460 output30
*461 output4
*462 output5
*463 output6
*464 output7
*465 output8
*466 output9

*PORTS
R0[0] O
R0[1] O
R0[2] O
R0[3] O
R1[0] O
R1[1] O
R1[2] O
R1[3] O
R2[0] O
R2[1] O
R2[2] O
R2[3] O
R3[0] O
R3[1] O
R3[2] O
R3[3] O
clk I
halt O
instr[0] O
instr[1] O
instr[2] O
instr[3] O
instr[4] O
instr[5] O
instr[6] O
instr[7] O
pc[0] O
pc[1] O
pc[2] O
pc[3] O
reset I

*D_NET *1 0.001241
*CONN
*P R0[0] O
*I *448:X O *D sky130_fd_sc_hd__buf_2
*CAP
1 R0[0] 0.000614591
2 *448:X 0.000614591
3 R0[0] R0[3] 0
4 R0[0] R2[0] 0
5 R0[0] *432:A 6.05161e-06
6 R0[0] *448:A 5.7661e-06
*RES
1 *448:X R0[0] 23.2663 
*END

*D_NET *2 0.000700258
*CONN
*P R0[1] O
*I *459:X O *D sky130_fd_sc_hd__clkbuf_4
*CAP
1 R0[1] 0.000350129
2 *459:X 0.000350129
3 R0[1] *113:28 0
*RES
1 *459:X R0[1] 20.6929 
*END

*D_NET *3 0.00116941
*CONN
*P R0[2] O
*I *461:X O *D sky130_fd_sc_hd__clkbuf_4
*CAP
1 R0[2] 0.000357987
2 *461:X 0.000357987
3 R0[2] instr[0] 0
4 R0[2] instr[2] 3.75959e-05
5 R0[2] instr[5] 0.000289422
6 R0[2] *414:A 0.000126416
*RES
1 *461:X R0[2] 21.8378 
*END

*D_NET *4 0.000898203
*CONN
*P R0[3] O
*I *462:X O *D sky130_fd_sc_hd__clkbuf_4
*CAP
1 R0[3] 0.00035685
2 *462:X 0.00035685
3 R0[3] *150:10 0.000184503
4 R0[0] R0[3] 0
*RES
1 *462:X R0[3] 20.3537 
*END

*D_NET *5 0.000993827
*CONN
*P R1[0] O
*I *463:X O *D sky130_fd_sc_hd__clkbuf_4
*CAP
1 R1[0] 0.000492001
2 *463:X 0.000492001
3 R1[0] *384:A 9.8254e-06
*RES
1 *463:X R1[0] 22.8536 
*END

*D_NET *6 0.000710828
*CONN
*P R1[1] O
*I *464:X O *D sky130_fd_sc_hd__clkbuf_4
*CAP
1 R1[1] 0.000355414
2 *464:X 0.000355414
3 R1[1] halt 0
*RES
1 *464:X R1[1] 20.6929 
*END

*D_NET *7 0.0017296
*CONN
*P R1[2] O
*I *465:X O *D sky130_fd_sc_hd__clkbuf_4
*CAP
1 R1[2] 0.000562959
2 *465:X 0.000562959
3 R1[2] instr[1] 0.000267023
4 R1[2] *399:CLK 0.000336662
5 R1[2] *418:A 0
*RES
1 *465:X R1[2] 26.2883 
*END

*D_NET *8 0.00138298
*CONN
*P R1[3] O
*I *466:X O *D sky130_fd_sc_hd__clkbuf_4
*CAP
1 R1[3] 0.000581689
2 *466:X 0.000581689
3 R1[3] R2[0] 0.000219604
4 R1[3] instr[6] 0
*RES
1 *466:X R1[3] 25.6254 
*END

*D_NET *9 0.00235203
*CONN
*P R2[0] O
*I *438:X O *D sky130_fd_sc_hd__clkbuf_4
*CAP
1 R2[0] 0.000813466
2 *438:X 0.000813466
3 R2[0] instr[6] 0
4 R2[0] *337:A 0.000505493
5 R2[0] *432:A 0
6 R2[0] *442:A 0
7 R0[0] R2[0] 0
8 R1[3] R2[0] 0.000219604
*RES
1 *438:X R2[0] 32.6929 
*END

*D_NET *10 0.00163917
*CONN
*P R2[1] O
*I *439:X O *D sky130_fd_sc_hd__clkbuf_4
*CAP
1 R2[1] 0.000537674
2 *439:X 0.000537674
3 R2[1] instr[3] 0
4 R2[1] *437:A 0
5 R2[1] *111:14 0.000162547
6 R2[1] *111:18 0.000401274
*RES
1 *439:X R2[1] 24.7472 
*END

*D_NET *11 0.00179829
*CONN
*P R2[2] O
*I *440:X O *D sky130_fd_sc_hd__clkbuf_4
*CAP
1 R2[2] 0.000874247
2 *440:X 0.000874247
3 R2[2] instr[1] 4.97967e-05
*RES
1 *440:X R2[2] 29.8179 
*END

*D_NET *12 0.00268855
*CONN
*P R2[3] O
*I *441:X O *D sky130_fd_sc_hd__clkbuf_4
*CAP
1 R2[3] 0.00123672
2 *441:X 0.00123672
3 R2[3] *457:A 0.000144773
4 R2[3] *113:14 7.03295e-05
*RES
1 *441:X R2[3] 36.5143 
*END

*D_NET *13 0.00157434
*CONN
*P R3[0] O
*I *442:X O *D sky130_fd_sc_hd__clkbuf_4
*CAP
1 R3[0] 0.000775068
2 *442:X 0.000775068
3 R3[0] *442:A 2.42054e-05
*RES
1 *442:X R3[0] 27.7464 
*END

*D_NET *14 0.00117103
*CONN
*P R3[1] O
*I *443:X O *D sky130_fd_sc_hd__clkbuf_4
*CAP
1 R3[1] 0.000514057
2 *443:X 0.000514057
3 R3[1] *115:8 0.000142921
*RES
1 *443:X R3[1] 24.1393 
*END

*D_NET *15 0.00106106
*CONN
*P R3[2] O
*I *444:X O *D sky130_fd_sc_hd__clkbuf_4
*CAP
1 R3[2] 0.000480539
2 *444:X 0.000480539
3 R3[2] pc[3] 9.99853e-05
*RES
1 *444:X R3[2] 22.8536 
*END

*D_NET *16 0.00116543
*CONN
*P R3[3] O
*I *445:X O *D sky130_fd_sc_hd__clkbuf_4
*CAP
1 R3[3] 0.000582717
2 *445:X 0.000582717
3 R3[3] pc[2] 0
4 R3[3] *117:8 0
*RES
1 *445:X R3[3] 21.1123 
*END

*D_NET *17 0.00738801
*CONN
*P clk I
*I *418:A I *D sky130_fd_sc_hd__clkbuf_16
*CAP
1 clk 0.00316324
2 *418:A 0.00316324
3 *418:A *361:B 0.000175892
4 *418:A *391:A 2.67097e-05
5 *418:A *419:A 0
6 *418:A *76:29 9.66977e-05
7 *418:A *76:36 0.000124245
8 *418:A *101:14 6.05161e-06
9 *418:A *121:8 9.57524e-05
10 *418:A *124:20 0.000336612
11 *418:A *128:24 0.000178787
12 *418:A *133:57 2.07809e-05
13 R1[2] *418:A 0
*RES
1 clk *418:A 37.4943 
*END

*D_NET *19 0.00219396
*CONN
*P halt O
*I *446:X O *D sky130_fd_sc_hd__clkbuf_4
*CAP
1 halt 0.00109698
2 *446:X 0.00109698
3 halt pc[1] 0
4 halt *113:14 0
5 R1[1] halt 0
*RES
1 *446:X halt 30.5234 
*END

*D_NET *20 0.000691253
*CONN
*P instr[0] O
*I *447:X O *D sky130_fd_sc_hd__clkbuf_4
*CAP
1 instr[0] 0.000345627
2 *447:X 0.000345627
3 instr[0] *331:B 0
4 R0[2] instr[0] 0
*RES
1 *447:X instr[0] 20.9589 
*END

*D_NET *21 0.00169136
*CONN
*P instr[1] O
*I *449:X O *D sky130_fd_sc_hd__clkbuf_4
*CAP
1 instr[1] 0.000648598
2 *449:X 0.000648598
3 instr[1] *440:A 7.7345e-05
4 instr[1] *449:A 0
5 R1[2] instr[1] 0.000267023
6 R2[2] instr[1] 4.97967e-05
*RES
1 *449:X instr[1] 27.5679 
*END

*D_NET *22 0.00286934
*CONN
*P instr[2] O
*I *450:X O *D sky130_fd_sc_hd__clkbuf_4
*CAP
1 instr[2] 0.00119401
2 *450:X 0.00119401
3 instr[2] instr[5] 0.000158862
4 instr[2] *400:CLK 0.000147043
5 instr[2] *431:A 7.47344e-05
6 instr[2] *450:A 6.30838e-05
7 R0[2] instr[2] 3.75959e-05
*RES
1 *450:X instr[2] 33.4964 
*END

*D_NET *23 0.000986774
*CONN
*P instr[3] O
*I *451:X O *D sky130_fd_sc_hd__clkbuf_4
*CAP
1 instr[3] 0.000493387
2 *451:X 0.000493387
3 R2[1] instr[3] 0
*RES
1 *451:X instr[3] 20.7121 
*END

*D_NET *24 0.000983494
*CONN
*P instr[4] O
*I *452:X O *D sky130_fd_sc_hd__clkbuf_4
*CAP
1 instr[4] 0.000441013
2 *452:X 0.000441013
3 instr[4] *452:A 4.4873e-05
4 instr[4] *131:67 5.65955e-05
*RES
1 *452:X instr[4] 22.3536 
*END

*D_NET *25 0.0016773
*CONN
*P instr[5] O
*I *453:X O *D sky130_fd_sc_hd__clkbuf_4
*CAP
1 instr[5] 0.000614508
2 *453:X 0.000614508
3 instr[5] pc[3] 0
4 R0[2] instr[5] 0.000289422
5 instr[2] instr[5] 0.000158862
*RES
1 *453:X instr[5] 27.0706 
*END

*D_NET *26 0.00295036
*CONN
*P instr[6] O
*I *454:X O *D sky130_fd_sc_hd__clkbuf_4
*CAP
1 instr[6] 0.00127428
2 *454:X 0.00127428
3 instr[6] *337:A 0
4 instr[6] *370:A 7.00301e-05
5 instr[6] *385:A 5.58331e-05
6 instr[6] *398:CLK 5.83304e-05
7 instr[6] *409:D 6.14702e-06
8 instr[6] *454:A 8.29471e-05
9 instr[6] *154:25 0.000128504
10 R1[3] instr[6] 0
11 R2[0] instr[6] 0
*RES
1 *454:X instr[6] 26.3693 
*END

*D_NET *27 0.00106662
*CONN
*P instr[7] O
*I *455:X O *D sky130_fd_sc_hd__clkbuf_4
*CAP
1 instr[7] 0.00053331
2 *455:X 0.00053331
3 instr[7] pc[3] 0
*RES
1 *455:X instr[7] 23.2643 
*END

*D_NET *28 0.00141365
*CONN
*P pc[0] O
*I *456:X O *D sky130_fd_sc_hd__clkbuf_4
*CAP
1 pc[0] 0.00061978
2 *456:X 0.00061978
3 pc[0] *456:A 0.00017409
*RES
1 *456:X pc[0] 24.9071 
*END

*D_NET *29 0.00103762
*CONN
*P pc[1] O
*I *457:X O *D sky130_fd_sc_hd__clkbuf_4
*CAP
1 pc[1] 0.000447383
2 *457:X 0.000447383
3 pc[1] *113:14 0.000142856
4 halt pc[1] 0
*RES
1 *457:X pc[1] 22.05 
*END

*D_NET *30 0.000691022
*CONN
*P pc[2] O
*I *458:X O *D sky130_fd_sc_hd__clkbuf_4
*CAP
1 pc[2] 0.000345511
2 *458:X 0.000345511
3 R3[3] pc[2] 0
*RES
1 *458:X pc[2] 22.0661 
*END

*D_NET *31 0.00306846
*CONN
*P pc[3] O
*I *460:X O *D sky130_fd_sc_hd__clkbuf_4
*CAP
1 pc[3] 0.00131468
2 *460:X 0.00131468
3 pc[3] *460:A 0.000315445
4 pc[3] *461:A 2.36643e-05
5 R3[2] pc[3] 9.99853e-05
6 instr[5] pc[3] 0
7 instr[7] pc[3] 0
*RES
1 *460:X pc[3] 33.8129 
*END

*D_NET *32 0.000698784
*CONN
*P reset I
*I *437:A I *D sky130_fd_sc_hd__clkbuf_2
*CAP
1 reset 0.000349392
2 *437:A 0.000349392
3 R2[1] *437:A 0
*RES
1 reset *437:A 20.9959 
*END

*D_NET *34 0.000728422
*CONN
*I *394:D I *D sky130_fd_sc_hd__dfrtp_4
*I *319:A I *D sky130_fd_sc_hd__nor2_2
*I *317:Y O *D sky130_fd_sc_hd__inv_2
*CAP
1 *394:D 0
2 *319:A 0.000101475
3 *317:Y 0.000168769
4 *34:12 0.000270244
5 *319:A *328:B 1.02301e-05
6 *319:A *394:CLK 1.02132e-05
7 *319:A *108:14 4.7812e-05
8 *319:A *108:20 1.83136e-05
9 *34:12 *108:12 3.85148e-05
10 *34:12 *108:14 1.83053e-05
11 *34:12 *108:49 4.4545e-05
*RES
1 *317:Y *34:12 21.7107 
2 *34:12 *319:A 11.4964 
3 *34:12 *394:D 9.3 
*END

*D_NET *35 0.00191708
*CONN
*I *395:D I *D sky130_fd_sc_hd__dfrtp_1
*I *371:B1 I *D sky130_fd_sc_hd__o221a_1
*I *327:Y O *D sky130_fd_sc_hd__nand2_1
*CAP
1 *395:D 0.000223768
2 *371:B1 0.000360844
3 *327:Y 3.92518e-05
4 *35:8 0.000623863
5 *371:B1 *327:A 4.75269e-05
6 *371:B1 *345:B 2.82509e-05
7 *371:B1 *371:C1 1.02301e-05
8 *371:B1 *374:A 0.000141813
9 *371:B1 *79:111 4.27169e-05
10 *371:B1 *79:120 3.66138e-05
11 *371:B1 *113:28 0.000241982
12 *371:B1 *150:18 6.5216e-05
13 *395:D *77:23 0
14 *395:D *125:31 0
15 *35:8 *79:120 5.50052e-05
*RES
1 *327:Y *35:8 14.3357 
2 *35:8 *371:B1 20.9429 
3 *35:8 *395:D 17.5679 
*END

*D_NET *36 0.000560727
*CONN
*I *396:D I *D sky130_fd_sc_hd__dfrtp_1
*I *330:Y O *D sky130_fd_sc_hd__nor2_1
*CAP
1 *396:D 0.000209849
2 *330:Y 0.000209849
3 *396:D *396:CLK 0.000102539
4 *396:D *81:14 3.84889e-05
*RES
1 *330:Y *396:D 31.4393 
*END

*D_NET *37 0.000414483
*CONN
*I *397:D I *D sky130_fd_sc_hd__dfrtp_1
*I *331:X O *D sky130_fd_sc_hd__xor2_1
*CAP
1 *397:D 0.000125424
2 *331:X 0.000125424
3 *397:D *331:A 0.000163635
4 *397:D *108:20 0
*RES
1 *331:X *397:D 30.5107 
*END

*D_NET *38 0.000479335
*CONN
*I *394:RESET_B I *D sky130_fd_sc_hd__dfrtp_4
*I *332:Y O *D sky130_fd_sc_hd__inv_2
*CAP
1 *394:RESET_B 8.95891e-05
2 *332:Y 8.95891e-05
3 *394:RESET_B *317:A 3.11088e-05
4 *394:RESET_B *109:26 0.000175418
5 *394:RESET_B *133:20 9.36295e-05
*RES
1 *332:Y *394:RESET_B 21.0857 
*END

*D_NET *39 0.000427248
*CONN
*I *395:RESET_B I *D sky130_fd_sc_hd__dfrtp_1
*I *333:Y O *D sky130_fd_sc_hd__inv_2
*CAP
1 *395:RESET_B 4.37179e-05
2 *333:Y 4.37179e-05
3 *395:RESET_B *108:99 0.000119422
4 *395:RESET_B *109:16 0.000220391
*RES
1 *333:Y *395:RESET_B 11.4161 
*END

*D_NET *40 0.000444506
*CONN
*I *396:RESET_B I *D sky130_fd_sc_hd__dfrtp_1
*I *334:Y O *D sky130_fd_sc_hd__inv_2
*CAP
1 *396:RESET_B 0.000159235
2 *334:Y 0.000159235
3 *396:RESET_B *396:CLK 3.42999e-05
4 *396:RESET_B *130:14 9.1736e-05
*RES
1 *334:Y *396:RESET_B 21.1304 
*END

*D_NET *41 0.000288948
*CONN
*I *397:RESET_B I *D sky130_fd_sc_hd__dfrtp_1
*I *335:Y O *D sky130_fd_sc_hd__inv_2
*CAP
1 *397:RESET_B 0.000103886
2 *335:Y 0.000103886
3 *397:RESET_B *453:A 5.76121e-05
4 *397:RESET_B *132:10 2.35639e-05
*RES
1 *335:Y *397:RESET_B 11.4161 
*END

*D_NET *42 0.000459869
*CONN
*I *398:D I *D sky130_fd_sc_hd__dfxtp_1
*I *337:X O *D sky130_fd_sc_hd__clkbuf_1
*CAP
1 *398:D 0.00020527
2 *337:X 0.00020527
3 *398:D *337:A 4.93285e-05
*RES
1 *337:X *398:D 30.7473 
*END

*D_NET *43 0.00125057
*CONN
*I *399:D I *D sky130_fd_sc_hd__dfxtp_1
*I *339:X O *D sky130_fd_sc_hd__clkbuf_1
*CAP
1 *399:D 0.000625284
2 *339:X 0.000625284
3 *399:D *399:CLK 0
*RES
1 *339:X *399:D 37.8545 
*END

*D_NET *44 0.000535066
*CONN
*I *400:D I *D sky130_fd_sc_hd__dfxtp_1
*I *341:X O *D sky130_fd_sc_hd__clkbuf_1
*CAP
1 *400:D 0.000107787
2 *341:X 0.000107787
3 *400:D *400:CLK 0.00017346
4 *400:D *450:A 0.000146032
*RES
1 *341:X *400:D 30.3366 
*END

*D_NET *45 0.000736314
*CONN
*I *401:D I *D sky130_fd_sc_hd__dfxtp_1
*I *343:X O *D sky130_fd_sc_hd__clkbuf_1
*CAP
1 *401:D 0.000366321
2 *343:X 0.000366321
3 *401:D *408:D 3.67279e-06
*RES
1 *343:X *401:D 33.0866 
*END

*D_NET *46 0.000896303
*CONN
*I *402:D I *D sky130_fd_sc_hd__dfxtp_1
*I *346:Y O *D sky130_fd_sc_hd__nand2_1
*CAP
1 *402:D 0.000257806
2 *346:Y 0.000257806
3 *402:D *344:A2 1.25275e-05
4 *402:D *346:A 4.36385e-05
5 *402:D *392:B 0
6 *402:D *393:A 0.0002582
7 *402:D *109:14 6.6325e-05
*RES
1 *346:Y *402:D 33.1893 
*END

*D_NET *47 0.00115242
*CONN
*I *403:D I *D sky130_fd_sc_hd__dfxtp_1
*I *358:X O *D sky130_fd_sc_hd__a31o_1
*CAP
1 *403:D 0.000514743
2 *358:X 0.000514743
3 *403:D *358:A1 3.69047e-06
4 *403:D *403:CLK 1.32293e-05
5 *403:D *407:D 2.29287e-05
6 *403:D *446:A 8.3081e-05
*RES
1 *358:X *403:D 35.4929 
*END

*D_NET *48 0.000547596
*CONN
*I *404:D I *D sky130_fd_sc_hd__dfxtp_1
*I *368:X O *D sky130_fd_sc_hd__a22o_1
*CAP
1 *404:D 8.33298e-05
2 *368:X 8.33298e-05
3 *404:D *368:A1 1.77011e-05
4 *404:D *368:A2 0.000202327
5 *404:D *107:42 3.27019e-05
6 *404:D *107:57 5.33005e-05
7 *404:D *112:8 1.82114e-05
8 *404:D *121:20 5.66943e-05
*RES
1 *368:X *404:D 30.3902 
*END

*D_NET *49 0.000794892
*CONN
*I *405:D I *D sky130_fd_sc_hd__dfxtp_1
*I *377:X O *D sky130_fd_sc_hd__a2bb2o_1
*CAP
1 *405:D 0.000265982
2 *377:X 0.000265982
3 *405:D *377:B2 0.000225521
4 *405:D *107:81 1.64343e-05
5 *405:D *123:47 0
6 *405:D *123:51 2.09722e-05
*RES
1 *377:X *405:D 31.5866 
*END

*D_NET *50 0.00029695
*CONN
*I *406:D I *D sky130_fd_sc_hd__dfxtp_1
*I *379:X O *D sky130_fd_sc_hd__clkbuf_1
*CAP
1 *406:D 9.89825e-05
2 *379:X 9.89825e-05
3 *406:D *378:A 3.9733e-05
4 *406:D *409:CLK 5.92518e-05
*RES
1 *379:X *406:D 29.5152 
*END

*D_NET *51 0.000323933
*CONN
*I *407:D I *D sky130_fd_sc_hd__dfxtp_1
*I *381:X O *D sky130_fd_sc_hd__clkbuf_1
*CAP
1 *407:D 9.87833e-05
2 *381:X 9.87833e-05
3 *407:D *402:CLK 0.000103437
4 *403:D *407:D 2.29287e-05
*RES
1 *381:X *407:D 29.7473 
*END

*D_NET *52 0.000952505
*CONN
*I *408:D I *D sky130_fd_sc_hd__dfxtp_1
*I *383:X O *D sky130_fd_sc_hd__clkbuf_1
*CAP
1 *408:D 0.000167475
2 *383:X 0.000167475
3 *408:D *399:CLK 0.000261671
4 *408:D *465:A 0.000307744
5 *408:D *107:18 4.44659e-05
6 *401:D *408:D 3.67279e-06
*RES
1 *383:X *408:D 32.8679 
*END

*D_NET *53 0.000885862
*CONN
*I *409:D I *D sky130_fd_sc_hd__dfxtp_1
*I *385:X O *D sky130_fd_sc_hd__clkbuf_1
*CAP
1 *409:D 0.000182793
2 *385:X 0.000182793
3 *409:D *354:B2 4.06782e-05
4 *409:D *385:A 0.000412649
5 *409:D *463:A 5.15508e-05
6 *409:D *125:10 9.25014e-06
7 instr[6] *409:D 6.14702e-06
*RES
1 *385:X *409:D 32.7652 
*END

*D_NET *54 0.000364806
*CONN
*I *410:D I *D sky130_fd_sc_hd__dfxtp_1
*I *387:X O *D sky130_fd_sc_hd__clkbuf_1
*CAP
1 *410:D 0.000182403
2 *387:X 0.000182403
*RES
1 *387:X *410:D 30.2473 
*END

*D_NET *55 0.000359699
*CONN
*I *411:D I *D sky130_fd_sc_hd__dfxtp_1
*I *389:X O *D sky130_fd_sc_hd__clkbuf_1
*CAP
1 *411:D 9.46476e-05
2 *389:X 9.46476e-05
3 *411:D *364:B1 1.64343e-05
4 *411:D *388:B 7.79859e-05
5 *411:D *449:A 4.87669e-06
6 *411:D *121:20 7.11068e-05
*RES
1 *389:X *411:D 29.7116 
*END

*D_NET *56 0.00120648
*CONN
*I *412:D I *D sky130_fd_sc_hd__dfxtp_1
*I *391:X O *D sky130_fd_sc_hd__clkbuf_1
*CAP
1 *412:D 0.000346215
2 *391:X 0.000346215
3 *412:D *324:A 7.89362e-05
4 *412:D *363:A 4.75424e-05
5 *412:D *363:B 1.84461e-05
6 *412:D *76:29 0.00013655
7 *412:D *107:127 0.000137561
8 *412:D *124:20 7.74068e-05
9 *412:D *142:12 1.76114e-05
*RES
1 *391:X *412:D 34.1893 
*END

*D_NET *57 0.000537001
*CONN
*I *413:D I *D sky130_fd_sc_hd__dfxtp_1
*I *393:X O *D sky130_fd_sc_hd__clkbuf_1
*CAP
1 *413:D 0.000161418
2 *393:X 0.000161418
3 *413:D *346:A 6.05161e-06
4 *413:D *413:CLK 7.74068e-05
5 *413:D *109:14 7.74068e-05
6 *413:D *150:18 5.33005e-05
*RES
1 *393:X *413:D 30.408 
*END

*D_NET *58 0.00347777
*CONN
*I *376:A2 I *D sky130_fd_sc_hd__a31o_1
*I *375:A2 I *D sky130_fd_sc_hd__a21oi_1
*I *368:B1 I *D sky130_fd_sc_hd__a22o_1
*I *366:X O *D sky130_fd_sc_hd__a21o_1
*CAP
1 *376:A2 0.000183144
2 *375:A2 0.000210643
3 *368:B1 0.00011084
4 *366:X 4.04036e-05
5 *58:23 0.000667092
6 *58:6 0.000424548
7 *368:B1 *368:A1 6.72876e-05
8 *368:B1 *429:A 3.6337e-05
9 *368:B1 *107:42 5.49544e-05
10 *368:B1 *112:14 3.71887e-05
11 *375:A2 *326:A 0.000168503
12 *375:A2 *375:A1 0.000143427
13 *375:A2 *79:39 0.000173015
14 *375:A2 *107:66 0.000141734
15 *376:A2 *376:A1 2.36643e-05
16 *376:A2 *376:B1 0.000228514
17 *376:A2 *417:A 9.35114e-06
18 *58:6 *429:A 2.2351e-05
19 *58:23 *368:A1 0.000141941
20 *58:23 *376:A1 3.5097e-05
21 *58:23 *376:B1 5.33005e-05
22 *58:23 *429:A 0.000504436
*RES
1 *366:X *58:6 9.83571 
2 *58:6 *368:B1 20.7821 
3 *58:6 *58:23 6.30357 
4 *58:23 *375:A2 24.0321 
5 *58:23 *376:A2 12.7286 
*END

*D_NET *59 0.00131185
*CONN
*I *368:B2 I *D sky130_fd_sc_hd__a22o_1
*I *367:Y O *D sky130_fd_sc_hd__a31oi_1
*CAP
1 *368:B2 0.000311548
2 *367:Y 0.000311548
3 *368:B2 *364:C1 0.00033717
4 *368:B2 *367:B1 2.976e-05
5 *368:B2 *429:A 6.84805e-05
6 *368:B2 *60:10 1.72828e-05
7 *368:B2 *102:14 6.05161e-06
8 *368:B2 *107:42 9.58181e-05
9 *368:B2 *112:14 0.000134193
*RES
1 *367:Y *368:B2 34.2786 
*END

*D_NET *60 0.00403231
*CONN
*I *376:A1 I *D sky130_fd_sc_hd__a31o_1
*I *375:A1 I *D sky130_fd_sc_hd__a21oi_1
*I *369:Y O *D sky130_fd_sc_hd__nand2_1
*CAP
1 *376:A1 0.000104027
2 *375:A1 0.000320329
3 *369:Y 0.000387188
4 *60:10 0.000811544
5 *375:A1 *326:A 9.75679e-05
6 *375:A1 *364:B1 2.36854e-05
7 *375:A1 *375:B1 1.8461e-05
8 *375:A1 *411:CLK 5.46383e-06
9 *375:A1 *107:57 4.21415e-05
10 *375:A1 *107:66 6.41058e-05
11 *375:A1 *113:28 0.000190954
12 *375:A1 *123:47 0.000358091
13 *376:A1 *376:B1 0.000271982
14 *376:A1 *417:A 0.00014931
15 *376:A1 *429:A 5.50052e-05
16 *376:A1 *79:35 6.96806e-05
17 *60:10 *365:A 1.21258e-05
18 *60:10 *366:A2 9.67754e-05
19 *60:10 *367:B1 2.84026e-05
20 *60:10 *79:27 0.000393245
21 *60:10 *79:35 0.000173751
22 *60:10 *102:14 2.59355e-05
23 *60:10 *113:28 0.00011307
24 *368:B2 *60:10 1.72828e-05
25 *375:A2 *375:A1 0.000143427
26 *376:A2 *376:A1 2.36643e-05
27 *58:23 *376:A1 3.5097e-05
*RES
1 *369:Y *60:10 22.9429 
2 *60:10 *375:A1 23.05 
3 *60:10 *376:A1 18.0321 
*END

*D_NET *61 0.00117067
*CONN
*I *371:C1 I *D sky130_fd_sc_hd__o221a_1
*I *370:X O *D sky130_fd_sc_hd__or2_1
*CAP
1 *371:C1 0.000410941
2 *370:X 0.000410941
3 *371:C1 *327:A 0
4 *371:C1 *345:B 3.08664e-05
5 *371:C1 *354:B2 0
6 *371:C1 *371:A2 3.41517e-06
7 *371:C1 *371:B2 1.00887e-05
8 *371:C1 *77:23 0.000237591
9 *371:C1 *150:18 5.65955e-05
10 *371:B1 *371:C1 1.02301e-05
*RES
1 *370:X *371:C1 35.6 
*END

*D_NET *62 0.0020046
*CONN
*I *374:A I *D sky130_fd_sc_hd__xor2_1
*I *371:X O *D sky130_fd_sc_hd__o221a_1
*CAP
1 *374:A 0.000330574
2 *371:X 0.000330574
3 *374:A *373:A0 0.000219627
4 *374:A *374:B 5.50052e-05
5 *374:A *65:14 9.83388e-05
6 *374:A *76:42 0.000396252
7 *374:A *106:12 9.58181e-05
8 *374:A *113:28 0.000336603
9 *371:B1 *374:A 0.000141813
*RES
1 *371:X *374:A 37.1536 
*END

*D_NET *63 0.00148477
*CONN
*I *373:A0 I *D sky130_fd_sc_hd__mux2_1
*I *372:Y O *D sky130_fd_sc_hd__nand2_1
*CAP
1 *373:A0 0.000447987
2 *372:Y 0.000447987
3 *373:A0 *372:A 3.69047e-06
4 *373:A0 *373:S 5.49544e-05
5 *373:A0 *113:28 5.79792e-05
6 *373:A0 *120:22 0.000185124
7 *373:A0 *128:79 6.74222e-05
8 *374:A *373:A0 0.000219627
*RES
1 *372:Y *373:A0 36.3321 
*END

*D_NET *64 0.000397535
*CONN
*I *374:B I *D sky130_fd_sc_hd__xor2_1
*I *373:X O *D sky130_fd_sc_hd__mux2_1
*CAP
1 *374:B 9.23287e-05
2 *373:X 9.23287e-05
3 *374:B *95:12 7.89362e-05
4 *374:B *150:28 7.89362e-05
5 *374:A *374:B 5.50052e-05
*RES
1 *373:X *374:B 29.9036 
*END

*D_NET *65 0.00352322
*CONN
*I *376:A3 I *D sky130_fd_sc_hd__a31o_1
*I *375:B1 I *D sky130_fd_sc_hd__a21oi_1
*I *374:X O *D sky130_fd_sc_hd__xor2_1
*CAP
1 *376:A3 0
2 *375:B1 0.000230079
3 *374:X 0.000710192
4 *65:14 0.00094027
5 *375:B1 *377:A2_N 3.9733e-05
6 *375:B1 *417:A 0.000381086
7 *375:B1 *107:66 5.48394e-05
8 *375:B1 *123:47 0.000191884
9 *65:14 *350:A_N 9.76123e-05
10 *65:14 *350:C 0.00028692
11 *65:14 *351:A_N 0
12 *65:14 *417:A 4.73355e-05
13 *65:14 *95:12 6.79534e-05
14 *65:14 *128:79 0.000214552
15 *65:14 *150:28 0.000143967
16 *374:A *65:14 9.83388e-05
17 *375:A1 *375:B1 1.8461e-05
*RES
1 *374:X *65:14 28.0857 
2 *65:14 *375:B1 20.5857 
3 *65:14 *376:A3 13.8 
*END

*D_NET *66 0.000766134
*CONN
*I *377:A1_N I *D sky130_fd_sc_hd__a2bb2o_1
*I *375:Y O *D sky130_fd_sc_hd__a21oi_1
*CAP
1 *377:A1_N 0.000187651
2 *375:Y 0.000187651
3 *377:A1_N *377:A2_N 1.32056e-05
4 *377:A1_N *377:B2 0.000180072
5 *377:A1_N *417:A 0.000121842
6 *377:A1_N *107:66 5.98969e-05
7 *377:A1_N *112:8 1.58163e-05
*RES
1 *375:Y *377:A1_N 31.5777 
*END

*D_NET *67 0.000340828
*CONN
*I *377:A2_N I *D sky130_fd_sc_hd__a2bb2o_1
*I *376:X O *D sky130_fd_sc_hd__a31o_1
*CAP
1 *377:A2_N 0.000132113
2 *376:X 0.000132113
3 *377:A2_N *377:B2 2.36643e-05
4 *375:B1 *377:A2_N 3.9733e-05
5 *377:A1_N *377:A2_N 1.32056e-05
*RES
1 *376:X *377:A2_N 30.3321 
*END

*D_NET *68 0.000652688
*CONN
*I *379:A I *D sky130_fd_sc_hd__clkbuf_1
*I *378:X O *D sky130_fd_sc_hd__or2_1
*CAP
1 *379:A 0.000156654
2 *378:X 0.000156654
3 *379:A *323:A 1.02301e-05
4 *379:A *378:A 0.000219875
5 *379:A *77:15 3.18676e-05
6 *379:A *108:70 7.74068e-05
*RES
1 *378:X *379:A 30.85 
*END

*D_NET *69 0.000178994
*CONN
*I *381:A I *D sky130_fd_sc_hd__clkbuf_1
*I *380:X O *D sky130_fd_sc_hd__and2_1
*CAP
1 *381:A 4.02634e-05
2 *380:X 4.02634e-05
3 *381:A *380:A 9.84673e-05
*RES
1 *380:X *381:A 19.5464 
*END

*D_NET *70 0.00037537
*CONN
*I *383:A I *D sky130_fd_sc_hd__clkbuf_1
*I *382:X O *D sky130_fd_sc_hd__or2_1
*CAP
1 *383:A 0.000161286
2 *382:X 0.000161286
3 *383:A *343:A 5.27978e-05
*RES
1 *382:X *383:A 21.6179 
*END

*D_NET *71 0.0016438
*CONN
*I *385:A I *D sky130_fd_sc_hd__clkbuf_1
*I *384:X O *D sky130_fd_sc_hd__and2_1
*CAP
1 *385:A 0.000417617
2 *384:X 0.000417617
3 *385:A *398:CLK 1.18451e-05
4 *385:A *409:CLK 1.93007e-05
5 *385:A *413:CLK 9.69119e-06
6 *385:A *448:A 5.71472e-05
7 *385:A *454:A 0.000152056
8 *385:A *108:99 5.52302e-05
9 *385:A *125:10 3.48139e-05
10 instr[6] *385:A 5.58331e-05
11 *409:D *385:A 0.000412649
*RES
1 *384:X *385:A 35.9214 
*END

*D_NET *72 0.000531018
*CONN
*I *387:A I *D sky130_fd_sc_hd__clkbuf_1
*I *386:X O *D sky130_fd_sc_hd__or2_1
*CAP
1 *387:A 0.000172404
2 *386:X 0.000172404
3 *387:A *373:S 3.05605e-05
4 *387:A *101:14 2.84026e-05
5 *387:A *128:24 0.000127246
*RES
1 *386:X *387:A 30.6 
*END

*D_NET *73 0.00108494
*CONN
*I *389:A I *D sky130_fd_sc_hd__clkbuf_1
*I *388:X O *D sky130_fd_sc_hd__or2_1
*CAP
1 *389:A 0.000277368
2 *388:X 0.000277368
3 *389:A *388:A 4.75955e-05
4 *389:A *388:B 0.000358977
5 *389:A *452:A 1.8461e-05
6 *389:A *113:28 3.18747e-05
7 *389:A *131:67 7.32955e-05
*RES
1 *388:X *389:A 25.3143 
*END

*D_NET *74 0.00117999
*CONN
*I *391:A I *D sky130_fd_sc_hd__clkbuf_1
*I *390:X O *D sky130_fd_sc_hd__and2_1
*CAP
1 *391:A 0.000506285
2 *390:X 0.000506285
3 *391:A *329:A 2.95746e-06
4 *391:A *419:A 1.94945e-05
5 *391:A *76:29 1.94945e-05
6 *391:A *89:23 5.95527e-06
7 *391:A *128:79 5.63271e-05
8 *391:A *133:28 4.6025e-06
9 *391:A *133:57 1.00733e-05
10 *391:A *142:40 2.18087e-05
11 *418:A *391:A 2.67097e-05
*RES
1 *390:X *391:A 36.5448 
*END

*D_NET *75 0.00144272
*CONN
*I *393:A I *D sky130_fd_sc_hd__clkbuf_1
*I *392:X O *D sky130_fd_sc_hd__and2_1
*CAP
1 *393:A 0.000326887
2 *392:X 0.000326887
3 *393:A *344:A2 0.000144732
4 *393:A *346:A 2.22526e-05
5 *393:A *372:A 2.83729e-05
6 *393:A *402:CLK 3.06123e-05
7 *393:A *413:CLK 9.04756e-05
8 *393:A *87:10 0.000150773
9 *393:A *120:18 6.35274e-05
10 *402:D *393:A 0.0002582
*RES
1 *392:X *393:A 35.4571 
*END

*D_NET *76 0.00589103
*CONN
*I *362:A1 I *D sky130_fd_sc_hd__a31o_1
*I *354:A2 I *D sky130_fd_sc_hd__o221a_1
*I *392:B I *D sky130_fd_sc_hd__and2_1
*I *321:A I *D sky130_fd_sc_hd__inv_2
*I *390:B I *D sky130_fd_sc_hd__and2_1
*I *320:X O *D sky130_fd_sc_hd__or2_2
*CAP
1 *362:A1 0.000194722
2 *354:A2 7.05128e-05
3 *392:B 0.000126856
4 *321:A 0
5 *390:B 0.000103799
6 *320:X 1.98239e-05
7 *76:42 0.000811973
8 *76:36 0.000864606
9 *76:29 0.000286562
10 *76:6 0.000354905
11 *354:A2 *345:B 1.25366e-05
12 *354:A2 *77:41 0.000195718
13 *354:A2 *120:72 0.00019559
14 *362:A1 *373:S 6.51675e-05
15 *362:A1 *101:14 2.2351e-05
16 *362:A1 *102:14 4.54942e-05
17 *362:A1 *128:24 7.70035e-05
18 *390:B *390:A 5.49995e-05
19 *390:B *396:CLK 3.03399e-05
20 *390:B *435:A 9.14454e-05
21 *390:B *128:28 2.27894e-05
22 *390:B *128:32 1.24368e-05
23 *390:B *133:28 2.84424e-05
24 *392:B *372:A 5.50052e-05
25 *392:B *77:41 0.000101771
26 *392:B *95:12 0
27 *76:6 *396:CLK 3.49456e-06
28 *76:29 *361:B 7.6997e-05
29 *76:29 *419:A 5.2402e-05
30 *76:29 *435:A 0.000121254
31 *76:29 *106:12 6.05161e-06
32 *76:29 *128:24 4.46732e-05