*SPEF "ieee 1481-1999"
*DESIGN "riscv32"
*DATE "11:11:11 Fri 11 11, 1111"
*VENDOR "OpenRCX"
*PROGRAM "Parallel Extraction"
*VERSION "1.0"
*DESIGN_FLOW "NAME_SCOPE LOCAL" "PIN_CAP NONE"
*DIVIDER /
*DELIMITER :
*BUS_DELIMITER []
*T_UNIT 1 NS
*C_UNIT 1 PF
*R_UNIT 1 OHM
*L_UNIT 1 HENRY

*NAME_MAP
*1 R0[0]
*2 R0[1]
*3 R0[2]
*4 R0[3]
*5 R1[0]
*6 R1[1]
*7 R1[2]
*8 R1[3]
*9 R2[0]
*10 R2[1]
*11 R2[2]
*12 R2[3]
*13 R3[0]
*14 R3[1]
*15 R3[2]
*16 R3[3]
*17 clk
*19 halt
*20 instr[0]
*21 instr[1]
*22 instr[2]
*23 instr[3]
*24 instr[4]
*25 instr[5]
*26 instr[6]
*27 instr[7]
*28 pc[0]
*29 pc[1]
*30 pc[2]
*31 pc[3]
*32 reset
*34 _000_
*35 _001_
*36 _002_
*37 _003_
*38 _004_
*39 _005_
*40 _006_
*41 _007_
*42 _008_
*43 _009_
*44 _010_
*45 _011_
*46 _012_
*47 _013_
*48 _014_
*49 _015_
*50 _016_
*51 _017_
*52 _018_
*53 _019_
*54 _020_
*55 _021_
*56 _022_
*57 _023_
*58 _024_
*59 _025_
*60 _026_
*61 _027_
*62 _028_
*63 _029_
*64 _030_
*65 _031_
*66 _032_
*67 _033_
*68 _034_
*69 _035_
*70 _036_
*71 _037_
*72 _038_
*73 _039_
*74 _040_
*75 _041_
*76 _042_
*77 _043_
*78 _044_
*79 _045_
*80 _046_
*81 _047_
*82 _048_
*83 _049_
*84 _050_
*85 _051_
*86 _052_
*87 _053_
*88 _054_
*89 _055_
*90 _056_
*91 _057_
*92 _058_
*93 _059_
*94 _060_
*95 _061_
*96 _062_
*97 _063_
*98 _064_
*99 _065_
*100 _066_
*101 _067_
*102 _068_
*103 _069_
*104 _070_
*105 _071_
*106 clknet_0_clk
*107 clknet_1_0__leaf_clk
*108 clknet_1_1__leaf_clk
*109 net1
*110 net10
*111 net11
*112 net12
*113 net13
*114 net14
*115 net15
*116 net16
*117 net17
*118 net18
*119 net19
*120 net2
*121 net20
*122 net21
*123 net22
*124 net23
*125 net24
*126 net25
*127 net26
*128 net27
*129 net28
*130 net29
*131 net3
*132 net30
*133 net31
*134 net32
*135 net33
*136 net34
*137 net35
*138 net36
*139 net37
*140 net38
*141 net39
*142 net4
*143 net40
*144 net41
*145 net42
*146 net43
*147 net44
*148 net45
*149 net46
*150 net5
*151 net6
*152 net7
*153 net8
*154 net9
*155 FILLER_0_0_20
*156 FILLER_0_0_3
*157 FILLER_0_0_37
*158 FILLER_0_0_49
*159 FILLER_0_0_62
*160 FILLER_0_0_66
*161 FILLER_0_0_79
*162 FILLER_0_0_83
*163 FILLER_0_0_91
*164 FILLER_0_10_12
*165 FILLER_0_10_26
*166 FILLER_0_10_43
*167 FILLER_0_10_51
*168 FILLER_0_10_57
*169 FILLER_0_10_68
*170 FILLER_0_10_79
*171 FILLER_0_10_83
*172 FILLER_0_10_85
*173 FILLER_0_11_10
*174 FILLER_0_11_57
*175 FILLER_0_11_69
*176 FILLER_0_11_81
*177 FILLER_0_11_93
*178 FILLER_0_12_29
*179 FILLER_0_12_3
*180 FILLER_0_12_41
*181 FILLER_0_12_49
*182 FILLER_0_12_85
*183 FILLER_0_13_11
*184 FILLER_0_13_23
*185 FILLER_0_13_28
*186 FILLER_0_13_3
*187 FILLER_0_13_36
*188 FILLER_0_13_48
*189 FILLER_0_13_52
*190 FILLER_0_13_70
*191 FILLER_0_14_37
*192 FILLER_0_15_15
*193 FILLER_0_15_26
*194 FILLER_0_15_29
*195 FILLER_0_15_37
*196 FILLER_0_15_49
*197 FILLER_0_15_55
*198 FILLER_0_15_63
*199 FILLER_0_15_72
*200 FILLER_0_15_82
*201 FILLER_0_15_91
*202 FILLER_0_1_55
*203 FILLER_0_1_57
*204 FILLER_0_1_83
*205 FILLER_0_1_9
*206 FILLER_0_1_90
*207 FILLER_0_2_27
*208 FILLER_0_2_40
*209 FILLER_0_2_73
*210 FILLER_0_2_77
*211 FILLER_0_2_9
*212 FILLER_0_2_93
*213 FILLER_0_3_18
*214 FILLER_0_3_27
*215 FILLER_0_3_3
*216 FILLER_0_3_40
*217 FILLER_0_3_57
*218 FILLER_0_3_68
*219 FILLER_0_3_76
*220 FILLER_0_4_19
*221 FILLER_0_4_27
*222 FILLER_0_4_29
*223 FILLER_0_4_40
*224 FILLER_0_4_47
*225 FILLER_0_4_59
*226 FILLER_0_4_63
*227 FILLER_0_4_74
*228 FILLER_0_4_85
*229 FILLER_0_5_17
*230 FILLER_0_5_29
*231 FILLER_0_5_3
*232 FILLER_0_5_36
*233 FILLER_0_5_43
*234 FILLER_0_5_55
*235 FILLER_0_6_29
*236 FILLER_0_6_3
*237 FILLER_0_6_37
*238 FILLER_0_6_45
*239 FILLER_0_6_49
*240 FILLER_0_6_65
*241 FILLER_0_6_72
*242 FILLER_0_6_76
*243 FILLER_0_6_93
*244 FILLER_0_7_28
*245 FILLER_0_7_51
*246 FILLER_0_7_55
*247 FILLER_0_7_57
*248 FILLER_0_7_66
*249 FILLER_0_7_74
*250 FILLER_0_7_92
*251 FILLER_0_8_23
*252 FILLER_0_8_37
*253 FILLER_0_8_68
*254 FILLER_0_8_93
*255 FILLER_0_9_15
*256 FILLER_0_9_3
*257 FILLER_0_9_48
*258 PHY_0
*259 PHY_1
*260 PHY_10
*261 PHY_11
*262 PHY_12
*263 PHY_13
*264 PHY_14
*265 PHY_15
*266 PHY_16
*267 PHY_17
*268 PHY_18
*269 PHY_19
*270 PHY_2
*271 PHY_20
*272 PHY_21
*273 PHY_22
*274 PHY_23
*275 PHY_24
*276 PHY_25
*277 PHY_26
*278 PHY_27
*279 PHY_28
*280 PHY_29
*281 PHY_3
*282 PHY_30
*283 PHY_31
*284 PHY_4
*285 PHY_5
*286 PHY_6
*287 PHY_7
*288 PHY_8
*289 PHY_9
*290 TAP_32
*291 TAP_33
*292 TAP_34
*293 TAP_35
*294 TAP_36
*295 TAP_37
*296 TAP_38
*297 TAP_39
*298 TAP_40
*299 TAP_41
*300 TAP_42
*301 TAP_43
*302 TAP_44
*303 TAP_45
*304 TAP_46
*305 TAP_47
*306 TAP_48
*307 TAP_49
*308 TAP_50
*309 TAP_51
*310 TAP_52
*311 TAP_53
*312 TAP_54
*313 TAP_55
*314 TAP_56
*315 TAP_57
*316 TAP_58
*317 _072_
*318 _073_
*319 _074_
*320 _075_
*321 _076_
*322 _077_
*323 _078_
*324 _079_
*325 _080_
*326 _081_
*327 _082_
*328 _083_
*329 _084_
*330 _085_
*331 _086_
*332 _087_
*333 _088_
*334 _089_
*335 _090_
*336 _091_
*337 _092_
*338 _093_
*339 _094_
*340 _095_
*341 _096_
*342 _097_
*343 _098_
*344 _099_
*345 _100_
*346 _101_
*347 _102_
*348 _103_
*349 _104_
*350 _105_
*351 _106_
*352 _107_
*353 _108_
*354 _109_
*355 _110_
*356 _111_
*357 _112_
*358 _113_
*359 _114_
*360 _115_
*361 _116_
*362 _117_
*363 _118_
*364 _119_
*365 _120_
*366 _121_
*367 _122_
*368 _123_
*369 _124_
*370 _125_
*371 _126_
*372 _127_
*373 _128_
*374 _129_
*375 _130_
*376 _131_
*377 _132_
*378 _133_
*379 _134_
*380 _135_
*381 _136_
*382 _137_
*383 _138_
*384 _139_
*385 _140_
*386 _141_
*387 _142_
*388 _143_
*389 _144_
*390 _145_
*391 _146_
*392 _147_
*393 _148_
*394 _149_
*395 _150_
*396 _151_
*397 _152_
*398 _153_
*399 _154_
*400 _155_
*401 _156_
*402 _157_
*403 _158_
*404 _159_
*405 _160_
*406 _161_
*407 _162_
*408 _163_
*409 _164_
*410 _165_
*411 _166_
*412 _167_
*413 _168_
*414 _169_
*415 _170_
*416 _171_
*417 _172_
*418 clkbuf_0_clk
*419 clkbuf_1_0__f_clk
*420 clkbuf_1_1__f_clk
*421 fanout31
*422 hold1
*423 hold10
*424 hold11
*425 hold12
*426 hold13
*427 hold14
*428 hold15
*429 hold2
*430 hold3
*431 hold4
*432 hold5
*433 hold6
*434 hold7
*435 hold8
*436 hold9
*437 input1
*438 output10
*439 output11
*440 output12
*441 output13
*442 output14
*443 output15
*444 output16
*445 output17
*446 output18
*447 output19
*448 output2
*449 output20
*450 output21
*451 output22
*452 output23
*453 output24
*454 output25
*455 output26
*456 output27
*457 output28
*458 output29
*459 output3
*460 output30
*461 output4
*462 output5
*463 output6
*464 output7
*465 output8
*466 output9

*PORTS
R0[0] O
R0[1] O
R0[2] O
R0[3] O
R1[0] O
R1[1] O
R1[2] O
R1[3] O
R2[0] O
R2[1] O
R2[2] O
R2[3] O
R3[0] O
R3[1] O
R3[2] O
R3[3] O
clk I
halt O
instr[0] O
instr[1] O
instr[2] O
instr[3] O
instr[4] O
instr[5] O
instr[6] O
instr[7] O
pc[0] O
pc[1] O
pc[2] O
pc[3] O
reset I

*D_NET *1 0.00135277
*CONN
*P R0[0] O
*I *448:X O *D sky130_fd_sc_hd__buf_2
*CAP
1 R0[0] 0.000252413
2 *448:X 0.00041793
3 *1:12 0.000670343
4 R0[0] R0[3] 0
5 *1:12 *432:A 6.17437e-06
6 *1:12 *448:A 5.90675e-06
7 *1:12 *9:10 0
*RES
1 *448:X *1:12 44.2039 
2 *1:12 R0[0] 8.84373 
*END

*D_NET *2 0.000740866
*CONN
*P R0[1] O
*I *459:X O *D sky130_fd_sc_hd__clkbuf_4
*CAP
1 R0[1] 0.000370433
2 *459:X 0.000370433
3 R0[1] *113:28 0
*RES
1 *459:X R0[1] 45.9957 
*END

*D_NET *3 0.00127118
*CONN
*P R0[2] O
*I *461:X O *D sky130_fd_sc_hd__clkbuf_4
*CAP
1 R0[2] 0.000236157
2 *461:X 0.000148169
3 *3:8 0.000384325
4 R0[2] instr[0] 0
5 *3:8 instr[2] 3.88725e-05
6 *3:8 *25:8 0.000322623
7 *3:8 *124:81 0.000141038
*RES
1 *461:X *3:8 42.5468 
2 *3:8 R0[2] 8.84373 
*END

*D_NET *4 0.000943618
*CONN
*P R0[3] O
*I *462:X O *D sky130_fd_sc_hd__clkbuf_4
*CAP
1 R0[3] 0.000377626
2 *462:X 0.000377626
3 R0[3] *150:10 0.000188366
4 R0[0] R0[3] 0
*RES
1 *462:X R0[3] 49.6622 
*END

*D_NET *5 0.00105075
*CONN
*P R1[0] O
*I *463:X O *D sky130_fd_sc_hd__clkbuf_4
*CAP
1 R1[0] 0.000520846
2 *463:X 0.000520846
3 R1[0] *145:10 9.05458e-06
*RES
1 *463:X R1[0] 48.5021 
*END

*D_NET *6 0.000753809
*CONN
*P R1[1] O
*I *464:X O *D sky130_fd_sc_hd__clkbuf_4
*CAP
1 R1[1] 0.000376904
2 *464:X 0.000376904
3 R1[1] halt 0
*RES
1 *464:X R1[1] 45.9957 
*END

*D_NET *7 0.00189791
*CONN
*P R1[2] O
*I *465:X O *D sky130_fd_sc_hd__clkbuf_4
*CAP
1 R1[2] 0.000287434
2 *465:X 0.000335749
3 *7:8 0.000623183
4 R1[2] *17:21 0
5 *7:8 instr[1] 0.000277727
6 *7:8 *107:28 0.000373814
*RES
1 *465:X *7:8 47.4768 
2 *7:8 R1[2] 9.08267 
*END

*D_NET *8 0.00146589
*CONN
*P R1[3] O
*I *466:X O *D sky130_fd_sc_hd__clkbuf_4
*CAP
1 R1[3] 0.000317131
2 *466:X 0.000304544
3 *8:10 0.000621676
4 R1[3] instr[6] 0
5 *8:10 R2[0] 0.000222537
*RES
1 *466:X *8:10 46.6896 
2 *8:10 R1[3] 9.10133 
*END

*D_NET *9 0.00258402
*CONN
*P R2[0] O
*I *438:X O *D sky130_fd_sc_hd__clkbuf_4
*CAP
1 R2[0] 0.000438479
2 *438:X 0.000459987
3 *9:10 0.000898466
4 R2[0] *26:10 0
5 *9:10 *432:A 0
6 *9:10 *442:A 0
7 *9:10 *82:12 0.000564555
8 *1:12 *9:10 0
9 *8:10 R2[0] 0.000222537
*RES
1 *438:X *9:10 49.2789 
2 *9:10 R2[0] 10.6368 
*END

*D_NET *10 0.00174527
*CONN
*P R2[1] O
*I *439:X O *D sky130_fd_sc_hd__clkbuf_4
*CAP
1 R2[1] 0.000188416
2 *439:X 0.00039302
3 *10:12 0.000581437
4 R2[1] instr[3] 0
5 R2[1] *32:13 0
6 *10:12 *111:10 8.57577e-05
7 *10:12 *111:14 8.65377e-05
8 *10:12 *111:18 0.000410106
*RES
1 *439:X *10:12 46.0889 
2 *10:12 R2[1] 8.672 
*END

*D_NET *11 0.00189032
*CONN
*P R2[2] O
*I *440:X O *D sky130_fd_sc_hd__clkbuf_4
*CAP
1 R2[2] 0.000480781
2 *440:X 0.000438638
3 *11:8 0.000919419
4 *11:8 *21:10 5.14826e-05
*RES
1 *440:X *11:8 45.7679 
2 *11:8 R2[2] 10.8129 
*END

*D_NET *12 0.0028611
*CONN
*P R2[3] O
*I *441:X O *D sky130_fd_sc_hd__clkbuf_4
*CAP
1 R2[3] 0.000403655
2 *441:X 0.000919392
3 *12:6 0.00132305
4 *12:6 *457:A 0.000143655
5 *12:6 *113:14 7.1349e-05
*RES
1 *441:X *12:6 40.2964 
2 *12:6 R2[3] 24.0521 
*END

*D_NET *13 0.00166031
*CONN
*P R3[0] O
*I *442:X O *D sky130_fd_sc_hd__clkbuf_4
*CAP
1 R3[0] 0.000565139
2 *442:X 0.000253439
3 *13:8 0.000818578
4 *13:8 *442:A 2.31581e-05
*RES
1 *442:X *13:8 41.9564 
2 *13:8 R3[0] 12.2214 
*END

*D_NET *14 0.00124309
*CONN
*P R3[1] O
*I *443:X O *D sky130_fd_sc_hd__clkbuf_4
*CAP
1 R3[1] 0.000548933
2 *443:X 0.000548933
3 R3[1] *115:8 0.000145228
*RES
1 *443:X R3[1] 49.9936 
*END

*D_NET *15 0.00111973
*CONN
*P R3[2] O
*I *444:X O *D sky130_fd_sc_hd__clkbuf_4
*CAP
1 R3[2] 0.000508671
2 *444:X 0.000508671
3 R3[2] pc[3] 0
4 R3[2] *31:12 0.000102389
*RES
1 *444:X R3[2] 48.5021 
*END

*D_NET *16 0.00123401
*CONN
*P R3[3] O
*I *445:X O *D sky130_fd_sc_hd__clkbuf_4
*CAP
1 R3[3] 0.000446268
2 *445:X 0.000170737
3 *16:10 0.000617005
4 R3[3] pc[2] 0
5 *16:10 *117:8 0
*RES
1 *445:X *16:10 49.1382 
2 *16:10 R3[3] 1.42613 
*END

*D_NET *17 0.00811833
*CONN
*P clk I
*I *418:A I *D sky130_fd_sc_hd__clkbuf_16
*CAP
1 clk 0.00332692
2 *418:A 0.000178148
3 *17:21 0.00350507
4 *418:A *76:29 9.77405e-05
5 *418:A *76:36 0.000124931
6 *418:A *89:16 0.000175903
7 *418:A *101:10 6.17437e-06
8 *418:A *121:8 9.64122e-05
9 *418:A *128:22 1.61361e-05
10 *17:21 *74:12 2.08936e-05
11 *17:21 *106:18 0
12 *17:21 *124:20 0.000370811
13 *17:21 *128:22 0.000177741
14 *17:21 *133:51 2.14599e-05
15 R1[2] *17:21 0
*RES
1 clk *17:21 35.8267 
2 *17:21 *418:A 41.9564 
*END

*D_NET *19 0.00234743
*CONN
*P halt O
*I *446:X O *D sky130_fd_sc_hd__clkbuf_4
*CAP
1 halt 0.00117372
2 *446:X 0
3 *19:6 0.00117372
4 halt pc[1] 0
5 halt *113:14 0
6 R1[1] halt 0
*RES
1 *446:X *19:6 38 
2 *19:6 halt 23.4908 
*END

*D_NET *20 0.00073581
*CONN
*P instr[0] O
*I *447:X O *D sky130_fd_sc_hd__clkbuf_4
*CAP
1 instr[0] 9.83601e-05
2 *447:X 0.000269545
3 *20:10 0.000367905
4 *20:10 *81:22 0
5 R0[2] instr[0] 0
*RES
1 *447:X *20:10 42.0289 
2 *20:10 instr[0] 8.32853 
*END

*D_NET *21 0.00184914
*CONN
*P instr[1] O
*I *449:X O *D sky130_fd_sc_hd__clkbuf_4
*CAP
1 instr[1] 0.000487251
2 *449:X 0.000232405
3 *21:10 0.000719656
4 *21:10 *112:28 8.06141e-05
5 *21:10 *121:45 0
6 *7:8 instr[1] 0.000277727
7 *11:8 *21:10 5.14826e-05
*RES
1 *449:X *21:10 42.4536 
2 *21:10 instr[1] 11.5171 
*END

*D_NET *22 0.00306453
*CONN
*P instr[2] O
*I *450:X O *D sky130_fd_sc_hd__clkbuf_4
*CAP
1 instr[2] 0.000507133
2 *450:X 0.000784465
3 *22:8 0.0012916
4 instr[2] *25:8 0.000157761
5 *22:8 *400:CLK 0.000146673
6 *22:8 *431:A 7.7723e-05
7 *22:8 *122:10 6.03037e-05
8 *3:8 instr[2] 3.88725e-05
*RES
1 *450:X *22:8 48.6264 
2 *22:8 instr[2] 12.2214 
*END

*D_NET *23 0.00103131
*CONN
*P instr[3] O
*I *451:X O *D sky130_fd_sc_hd__clkbuf_4
*CAP
1 instr[3] 0.000246165
2 *451:X 0.000269489
3 *23:12 0.000515654
4 R2[1] instr[3] 0
*RES
1 *451:X *23:12 49.3246 
2 *23:12 instr[3] 0.757867 
*END

*D_NET *24 0.00104757
*CONN
*P instr[4] O
*I *452:X O *D sky130_fd_sc_hd__clkbuf_4
*CAP
1 instr[4] 0.000471545
2 *452:X 0.000471545
3 instr[4] *452:A 4.65192e-05
4 instr[4] *131:67 5.79559e-05
*RES
1 *452:X instr[4] 47.9221 
*END

*D_NET *25 0.00183229
*CONN
*P instr[5] O
*I *453:X O *D sky130_fd_sc_hd__clkbuf_4
*CAP
1 instr[5] 0.000268661
2 *453:X 0.000407295
3 *25:8 0.000675956
4 instr[5] pc[3] 0
5 instr[2] *25:8 0.000157761
6 *3:8 *25:8 0.000322623
*RES
1 *453:X *25:8 48.5332 
2 *25:8 instr[5] 8.9296 
*END

*D_NET *26 0.00322634
*CONN
*P instr[6] O
*I *454:X O *D sky130_fd_sc_hd__clkbuf_4
*CAP
1 instr[6] 0.00103732
2 *454:X 0.000363152
3 *26:10 0.00140047
4 *26:10 *370:A 7.1374e-05
5 *26:10 *398:CLK 6.48142e-05
6 *26:10 *53:8 5.71002e-06
7 *26:10 *71:10 5.77452e-05
8 *26:10 *82:12 0
9 *26:10 *126:10 9.25e-05
10 *26:10 *154:25 0.000133248
11 R1[3] instr[6] 0
12 R2[0] *26:10 0
*RES
1 *454:X *26:10 46.1096 
2 *26:10 instr[6] 10.5835 
*END

*D_NET *27 0.00112829
*CONN
*P instr[7] O
*I *455:X O *D sky130_fd_sc_hd__clkbuf_4
*CAP
1 instr[7] 0.000564143
2 *455:X 0.000564143
3 instr[7] pc[3] 0
*RES
1 *455:X instr[7] 48.9786 
*END

*D_NET *28 0.00149096
*CONN
*P pc[0] O
*I *456:X O *D sky130_fd_sc_hd__clkbuf_4
*CAP
1 pc[0] 0.0004384
2 *456:X 0.000215837
3 *28:8 0.000654238
4 *28:8 *128:129 0.000182485
*RES
1 *456:X *28:8 41.48 
2 *28:8 pc[0] 9.40429 
*END

*D_NET *29 0.00108977
*CONN
*P pc[1] O
*I *457:X O *D sky130_fd_sc_hd__clkbuf_4
*CAP
1 pc[1] 0.000473903
2 *457:X 0.000473903
3 pc[1] *113:14 0.00014196
4 halt pc[1] 0
*RES
1 *457:X pc[1] 47.57 
*END

*D_NET *30 0.000732541
*CONN
*P pc[2] O
*I *458:X O *D sky130_fd_sc_hd__clkbuf_4
*CAP
1 pc[2] 8.53373e-05
2 *458:X 0.000280933
3 *30:10 0.000366271
4 R3[3] pc[2] 0
*RES
1 *458:X *30:10 43.3132 
2 *30:10 pc[2] 8.32853 
*END

*D_NET *31 0.00323577
*CONN
*P pc[3] O
*I *460:X O *D sky130_fd_sc_hd__clkbuf_4
*CAP
1 pc[3] 0.00117363
2 *460:X 0.000219351
3 *31:12 0.00139298
4 *31:12 *460:A 0.000322725
5 *31:12 *461:A 2.46906e-05
6 R3[2] pc[3] 0
7 R3[2] *31:12 0.000102389
8 instr[5] pc[3] 0
9 instr[7] pc[3] 0
*RES
1 *460:X *31:12 43.4271 
2 *31:12 pc[3] 21.8931 
*END

*D_NET *32 0.000740552
*CONN
*P reset I
*I *437:A I *D sky130_fd_sc_hd__clkbuf_2
*CAP
1 reset 0.000370276
2 *437:A 0
3 *32:13 0.000370276
4 R2[1] *32:13 0
*RES
1 reset *32:13 27.4049 
2 *32:13 *437:A 23 
*END

*D_NET *34 0.000801258
*CONN
*I *394:D I *D sky130_fd_sc_hd__dfrtp_4
*I *319:A I *D sky130_fd_sc_hd__nor2_2
*I *317:Y O *D sky130_fd_sc_hd__inv_2
*CAP
1 *394:D 0
2 *319:A 0.000110906
3 *317:Y 9.40069e-05
4 *34:12 0.000212532
5 *34:8 0.000195634
6 *319:A *394:CLK 1.12349e-05
7 *319:A *108:14 4.77213e-05
8 *319:A *108:20 1.83408e-05
9 *319:A *118:83 1.12796e-05
10 *34:8 *108:10 3.67805e-05
11 *34:12 *108:14 1.83327e-05
12 *34:12 *108:49 4.44894e-05
*RES
1 *317:Y *34:8 39.9057 
2 *34:8 *34:12 17.0507 
3 *34:12 *319:A 25.5479 
4 *34:12 *394:D 23 
*END

*D_NET *35 0.00215899
*CONN
*I *395:D I *D sky130_fd_sc_hd__dfrtp_1
*I *371:B1 I *D sky130_fd_sc_hd__o221a_1
*I *327:Y O *D sky130_fd_sc_hd__nand2_1
*CAP
1 *395:D 0.00025151
2 *371:B1 0.000440171
3 *327:Y 4.30303e-05
4 *35:8 0.000734712
5 *371:B1 *327:A 4.92446e-05
6 *371:B1 *371:C1 1.12796e-05
7 *371:B1 *62:10 0.000144751
8 *371:B1 *79:111 4.38233e-05
9 *371:B1 *79:120 3.66936e-05
10 *371:B1 *79:135 2.82709e-05
11 *371:B1 *113:28 0.000252656
12 *371:B1 *150:18 6.70444e-05
13 *395:D *77:23 0
14 *395:D *125:31 0
15 *35:8 *79:120 5.58003e-05
*RES
1 *327:Y *35:8 38.6214 
2 *35:8 *371:B1 46.2857 
3 *35:8 *395:D 42.3707 
*END

*D_NET *36 0.000613842
*CONN
*I *396:D I *D sky130_fd_sc_hd__dfrtp_1
*I *330:Y O *D sky130_fd_sc_hd__nor2_1
*CAP
1 *396:D 0.00011235
2 *330:Y 0.000120567
3 *36:8 0.000232917
4 *396:D *107:141 0.00010745
5 *36:8 *81:12 4.05582e-05
*RES
1 *330:Y *36:8 39.9057 
2 *36:8 *396:D 40.5479 
*END

*D_NET *37 0.000457323
*CONN
*I *397:D I *D sky130_fd_sc_hd__dfrtp_1
*I *331:X O *D sky130_fd_sc_hd__xor2_1
*CAP
1 *397:D 0
2 *331:X 0.00013781
3 *37:12 0.00013781
4 *37:12 *331:A 6.60665e-05
5 *37:12 *108:20 0
6 *37:12 *134:10 0.000115637
*RES
1 *331:X *37:12 41.3764 
2 *37:12 *397:D 38 
*END

*D_NET *38 0.000532619
*CONN
*I *394:RESET_B I *D sky130_fd_sc_hd__dfrtp_4
*I *332:Y O *D sky130_fd_sc_hd__inv_2
*CAP
1 *394:RESET_B 0
2 *332:Y 0.00010331
3 *38:10 0.00010331
4 *38:10 *317:A 3.26241e-05
5 *38:10 *109:26 0.000196318
6 *38:10 *133:20 9.70579e-05
*RES
1 *332:Y *38:10 41.2314 
2 *38:10 *394:RESET_B 15 
*END

*D_NET *39 0.000451967
*CONN
*I *395:RESET_B I *D sky130_fd_sc_hd__dfrtp_1
*I *333:Y O *D sky130_fd_sc_hd__inv_2
*CAP
1 *395:RESET_B 5.21448e-05
2 *333:Y 5.21448e-05
3 *395:RESET_B *108:99 0.000122922
4 *395:RESET_B *109:16 0.000224756
*RES
1 *333:Y *395:RESET_B 25.4546 
*END

*D_NET *40 0.000498713
*CONN
*I *396:RESET_B I *D sky130_fd_sc_hd__dfrtp_1
*I *334:Y O *D sky130_fd_sc_hd__inv_2
*CAP
1 *396:RESET_B 2.24863e-05
2 *334:Y 0.000163103
3 *40:8 0.00018559
4 *396:RESET_B *107:141 3.42349e-05
5 *396:RESET_B *130:14 9.32992e-05
*RES
1 *334:Y *40:8 40.2579 
2 *40:8 *396:RESET_B 16.0254 
*END

*D_NET *41 0.000305109
*CONN
*I *397:RESET_B I *D sky130_fd_sc_hd__dfrtp_1
*I *335:Y O *D sky130_fd_sc_hd__inv_2
*CAP
1 *397:RESET_B 0.000111715
2 *335:Y 0.000111715
3 *397:RESET_B *125:39 5.83407e-05
4 *397:RESET_B *132:10 2.33376e-05
*RES
1 *335:Y *397:RESET_B 25.4546 
*END

*D_NET *42 0.000520492
*CONN
*I *398:D I *D sky130_fd_sc_hd__dfxtp_1
*I *337:X O *D sky130_fd_sc_hd__clkbuf_1
*CAP
1 *398:D 0.000147983
2 *337:X 8.66678e-05
3 *42:8 0.000234651
4 *42:8 *82:12 5.119e-05
*RES
1 *337:X *42:8 39.5536 
2 *42:8 *398:D 40.0973 
*END

*D_NET *43 0.00136565
*CONN
*I *399:D I *D sky130_fd_sc_hd__dfxtp_1
*I *339:X O *D sky130_fd_sc_hd__clkbuf_1
*CAP
1 *399:D 0.000219584
2 *339:X 0.000463242
3 *43:8 0.000682826
4 *43:8 *107:28 0
*RES
1 *339:X *43:8 45.8921 
2 *43:8 *399:D 42.003 
*END

*D_NET *44 0.000583176
*CONN
*I *400:D I *D sky130_fd_sc_hd__dfxtp_1
*I *341:X O *D sky130_fd_sc_hd__clkbuf_1
*CAP
1 *400:D 2.78584e-05
2 *341:X 0.000101735
3 *44:8 0.000129594
4 *400:D *400:CLK 0.000149027
5 *400:D *122:10 0.000149027
6 *44:8 *400:CLK 2.59343e-05
*RES
1 *341:X *44:8 39.5536 
2 *44:8 *400:D 39.6209 
*END

*D_NET *45 0.000802793
*CONN
*I *401:D I *D sky130_fd_sc_hd__dfxtp_1
*I *343:X O *D sky130_fd_sc_hd__clkbuf_1
*CAP
1 *401:D 0.000201081
2 *343:X 0.000198561
3 *45:8 0.000399642
4 *45:8 *52:8 3.50862e-06
*RES
1 *343:X *45:8 41.3143 
2 *45:8 *401:D 41.0502 
*END

*D_NET *46 0.00102244
*CONN
*I *402:D I *D sky130_fd_sc_hd__dfxtp_1
*I *346:Y O *D sky130_fd_sc_hd__nand2_1
*CAP
1 *402:D 7.82501e-05
2 *346:Y 0.000229782
3 *46:10 0.000308032
4 *402:D *392:B 0
5 *46:10 *346:A 6.17437e-06
6 *46:10 *75:10 0.000285802
7 *46:10 *86:10 3.88629e-05
8 *46:10 *109:14 6.25501e-05
9 *46:10 *123:70 1.29848e-05
*RES
1 *346:Y *46:10 42.9921 
2 *46:10 *402:D 39.4914 
*END

*D_NET *47 0.00127375
*CONN
*I *403:D I *D sky130_fd_sc_hd__dfxtp_1
*I *358:X O *D sky130_fd_sc_hd__a31o_1
*CAP
1 *403:D 0.000122852
2 *358:X 0.000455423
3 *47:10 0.000578276
4 *403:D *403:CLK 1.35999e-05
5 *47:10 *358:A1 3.7122e-06
6 *47:10 *407:D 2.16086e-05
7 *47:10 *118:49 7.82805e-05
*RES
1 *358:X *47:10 44.5457 
2 *47:10 *403:D 40.61 
*END

*D_NET *48 0.000599998
*CONN
*I *404:D I *D sky130_fd_sc_hd__dfxtp_1
*I *368:X O *D sky130_fd_sc_hd__a22o_1
*CAP
1 *404:D 6.68944e-05
2 *368:X 3.61779e-05
3 *48:8 0.000103072
4 *404:D *368:A2 0.000208323
5 *404:D *107:42 3.46476e-05
6 *404:D *107:57 5.3304e-05
7 *404:D *112:8 1.72631e-05
8 *48:8 *121:20 6.33771e-05
9 *48:8 *135:10 1.69395e-05
*RES
1 *368:X *48:8 38.8493 
2 *48:8 *404:D 40.3873 
*END

*D_NET *49 0.000864348
*CONN
*I *405:D I *D sky130_fd_sc_hd__dfxtp_1
*I *377:X O *D sky130_fd_sc_hd__a2bb2o_1
*CAP
1 *405:D 8.45249e-06
2 *377:X 0.000291133
3 *49:10 0.000299586
4 *405:D *107:81 1.64354e-05
5 *49:10 *377:B2 0.00022926
6 *49:10 *123:47 0
7 *49:10 *123:51 1.94812e-05
*RES
1 *377:X *49:10 42.4329 
2 *49:10 *405:D 38.1916 
*END

*D_NET *50 0.000332977
*CONN
*I *406:D I *D sky130_fd_sc_hd__dfxtp_1
*I *379:X O *D sky130_fd_sc_hd__clkbuf_1
*CAP
1 *406:D 3.4927e-05
2 *379:X 8.09162e-05
3 *50:8 0.000115843
4 *406:D *409:CLK 6.01634e-05
5 *50:8 *146:12 4.11274e-05
*RES
1 *379:X *50:8 39.5536 
2 *50:8 *406:D 38.668 
*END

*D_NET *51 0.000362974
*CONN
*I *407:D I *D sky130_fd_sc_hd__dfxtp_1
*I *381:X O *D sky130_fd_sc_hd__clkbuf_1
*CAP
1 *407:D 4.81405e-05
2 *381:X 6.47789e-05
3 *51:8 0.000112919
4 *51:8 *402:CLK 0.000115526
5 *47:10 *407:D 2.16086e-05
*RES
1 *381:X *51:8 39.5536 
2 *51:8 *407:D 38.9373 
*END

*D_NET *52 0.00100879
*CONN
*I *408:D I *D sky130_fd_sc_hd__dfxtp_1
*I *383:X O *D sky130_fd_sc_hd__clkbuf_1
*CAP
1 *408:D 6.803e-05
2 *383:X 0.000119166
3 *52:8 0.000187196
4 *408:D *465:A 0.000315669
5 *408:D *107:18 4.43677e-05
6 *408:D *107:28 0.000234122
7 *52:8 *107:28 3.673e-05
8 *45:8 *52:8 3.50862e-06
*RES
1 *383:X *52:8 40.2579 
2 *52:8 *408:D 41.8529 
*END

*D_NET *53 0.00100205
*CONN
*I *409:D I *D sky130_fd_sc_hd__dfxtp_1
*I *385:X O *D sky130_fd_sc_hd__clkbuf_1
*CAP
1 *409:D 6.56923e-05
2 *385:X 0.000160368
3 *53:8 0.000226061
4 *409:D *71:10 0.000146676
5 *53:8 *354:B2 4.06408e-05
6 *53:8 *463:A 4.85979e-05
7 *53:8 *71:10 0.000298159
8 *53:8 *125:10 1.01436e-05
9 *26:10 *53:8 5.71002e-06
*RES
1 *385:X *53:8 42.3707 
2 *53:8 *409:D 39.6209 
*END

*D_NET *54 0.000407386
*CONN
*I *410:D I *D sky130_fd_sc_hd__dfxtp_1
*I *387:X O *D sky130_fd_sc_hd__clkbuf_1
*CAP
1 *410:D 1.58638e-05
2 *387:X 0.000187829
3 *54:10 0.000203693
*RES
1 *387:X *54:10 40.8793 
2 *54:10 *410:D 38.1916 
*END

*D_NET *55 0.000412269
*CONN
*I *411:D I *D sky130_fd_sc_hd__dfxtp_1
*I *389:X O *D sky130_fd_sc_hd__clkbuf_1
*CAP
1 *411:D 9.26771e-06
2 *389:X 0.000103341
3 *55:8 0.000112609
4 *411:D *121:45 4.9054e-06
5 *411:D *123:30 1.64354e-05
6 *55:8 *388:B 8.6074e-05
7 *55:8 *121:20 7.9636e-05
*RES
1 *389:X *55:8 40.2579 
2 *55:8 *411:D 38.1916 
*END

*D_NET *56 0.00134255
*CONN
*I *412:D I *D sky130_fd_sc_hd__dfxtp_1
*I *391:X O *D sky130_fd_sc_hd__clkbuf_1
*CAP
1 *412:D 0.000236719
2 *391:X 0.000168069
3 *56:10 0.000404788
4 *412:D *363:A 4.84907e-05
5 *412:D *363:B 1.75093e-05
6 *412:D *107:127 0.000138607
7 *412:D *142:12 1.75418e-05
8 *56:10 *324:A 8.78864e-05
9 *56:10 *76:29 0.000137191
10 *56:10 *124:20 8.57485e-05
*RES
1 *391:X *56:10 40.7757 
2 *56:10 *412:D 42.8679 
*END

*D_NET *57 0.000613686
*CONN
*I *413:D I *D sky130_fd_sc_hd__dfxtp_1
*I *393:X O *D sky130_fd_sc_hd__clkbuf_1
*CAP
1 *413:D 9.73623e-05
2 *393:X 9.39932e-05
3 *57:10 0.000191356
4 *413:D *346:A 6.17437e-06
5 *57:10 *413:CLK 8.57485e-05
6 *57:10 *109:14 8.57485e-05
7 *57:10 *150:18 5.3304e-05
*RES
1 *393:X *57:10 39.8229 
2 *57:10 *413:D 39.4345 
*END

*D_NET *58 0.00382621
*CONN
*I *376:A2 I *D sky130_fd_sc_hd__a31o_1
*I *375:A2 I *D sky130_fd_sc_hd__a21oi_1
*I *368:B1 I *D sky130_fd_sc_hd__a22o_1
*I *366:X O *D sky130_fd_sc_hd__a21o_1
*CAP
1 *376:A2 0.000210251
2 *375:A2 0
3 *368:B1 0
4 *366:X 4.42104e-05
5 *58:31 0.000248146
6 *58:23 0.000772382
7 *58:14 0.000139837
8 *58:6 0.000498032
9 *376:A2 *376:A1 2.46906e-05
10 *376:A2 *376:B1 0.000233367
11 *376:A2 *133:96 9.03364e-06
12 *58:6 *429:A 2.31591e-05
13 *58:14 *429:A 3.76854e-05
14 *58:14 *107:42 5.56356e-05
15 *58:14 *112:14 3.85802e-05
16 *58:14 *135:10 6.97718e-05
17 *58:23 *376:A1 3.60429e-05
18 *58:23 *376:B1 5.3304e-05
19 *58:23 *429:A 0.000515624
20 *58:23 *135:10 0.000145171
21 *58:31 *326:A 0.000186772
22 *58:31 *375:A1 0.000146984
23 *58:31 *79:39 0.000193024
24 *58:31 *107:66 0.000144501
*RES
1 *366:X *58:6 23.6214 
2 *58:6 *58:14 32.8793 
3 *58:14 *368:B1 23 
4 *58:6 *58:23 7.31214 
5 *58:23 *58:31 36.6493 
6 *58:31 *375:A2 23 
7 *58:23 *376:A2 26.9771 
*END

*D_NET *59 0.00146055
*CONN
*I *368:B2 I *D sky130_fd_sc_hd__a22o_1
*I *367:Y O *D sky130_fd_sc_hd__a31oi_1
*CAP
1 *368:B2 3.8773e-05
2 *367:Y 0.000318779
3 *59:10 0.000357552
4 *368:B2 *107:42 9.65021e-05
5 *368:B2 *112:14 5.56279e-05
6 *59:10 *364:C1 0.000375791
7 *59:10 *367:B1 3.07986e-05
8 *59:10 *429:A 7.58696e-05
9 *59:10 *60:10 1.65298e-05
10 *59:10 *102:14 6.17437e-06
11 *59:10 *112:14 8.81493e-05
*RES
1 *367:Y *59:10 44.6493 
2 *59:10 *368:B2 39.0979 
*END

*D_NET *60 0.00441718
*CONN
*I *376:A1 I *D sky130_fd_sc_hd__a31o_1
*I *375:A1 I *D sky130_fd_sc_hd__a21oi_1
*I *369:Y O *D sky130_fd_sc_hd__nand2_1
*CAP
1 *376:A1 0.000125057
2 *375:A1 0.000381979
3 *369:Y 0.000461547
4 *60:10 0.000968583
5 *375:A1 *326:A 9.91548e-05
6 *375:A1 *375:B1 1.8788e-05
7 *375:A1 *411:CLK 5.55743e-06
8 *375:A1 *107:57 3.93804e-05
9 *375:A1 *107:66 6.7102e-05
10 *375:A1 *113:28 0.00019765
11 *375:A1 *123:30 2.38482e-05
12 *375:A1 *123:47 0.000366342
13 *376:A1 *376:B1 0.00027805
14 *376:A1 *429:A 5.58003e-05
15 *376:A1 *79:35 7.17698e-05
16 *376:A1 *133:96 0.000155867
17 *60:10 *367:B1 2.93335e-05
18 *60:10 *79:27 0.000399336
19 *60:10 *79:35 0.000194027
20 *60:10 *96:43 9.79925e-05
21 *60:10 *102:14 2.64616e-05
22 *60:10 *102:28 1.21972e-05
23 *60:10 *113:28 0.000117106
24 *376:A2 *376:A1 2.46906e-05
25 *58:23 *376:A1 3.60429e-05
26 *58:31 *375:A1 0.000146984
27 *59:10 *60:10 1.65298e-05
*RES
1 *369:Y *60:10 48.6057 
2 *60:10 *375:A1 48.73 
3 *60:10 *376:A1 42.9093 
*END

*D_NET *61 0.00133691
*CONN
*I *371:C1 I *D sky130_fd_sc_hd__o221a_1
*I *370:X O *D sky130_fd_sc_hd__or2_1
*CAP
1 *371:C1 3.4851e-05
2 *370:X 0.000452281
3 *61:10 0.000487132
4 *371:C1 *327:A 0
5 *371:C1 *371:A2 3.23857e-06
6 *371:C1 *79:135 3.22051e-05
7 *371:C1 *150:18 5.79559e-05
8 *61:10 *354:B2 0
9 *61:10 *371:B2 1.13812e-05
10 *61:10 *77:23 0.00024659
11 *371:B1 *371:C1 1.12796e-05
*RES
1 *370:X *61:10 46.1614 
2 *61:10 *371:C1 39.1186 
*END

*D_NET *62 0.00219237
*CONN
*I *374:A I *D sky130_fd_sc_hd__xor2_1
*I *371:X O *D sky130_fd_sc_hd__o221a_1
*CAP
1 *374:A 0.000126126
2 *371:X 0.000259631
3 *62:10 0.000385758
4 *374:A *374:B 5.58003e-05
5 *374:A *65:8 0.000100061
6 *374:A *76:42 0.000403056
7 *374:A *106:12 9.65021e-05
8 *62:10 *63:10 0.00024503
9 *62:10 *113:28 0.000375659
10 *371:B1 *62:10 0.000144751
*RES
1 *371:X *62:10 44.6493 
2 *62:10 *374:A 42.4329 
*END

*D_NET *63 0.00162221
*CONN
*I *373:A0 I *D sky130_fd_sc_hd__mux2_1
*I *372:Y O *D sky130_fd_sc_hd__nand2_1
*CAP
1 *373:A0 6.31519e-05
2 *372:Y 0.000439232
3 *63:10 0.000502383
4 *373:A0 *373:S 5.56356e-05
5 *373:A0 *120:22 0.000188934
6 *63:10 *113:28 6.00097e-05
7 *63:10 *125:18 3.7122e-06
8 *63:10 *128:79 6.41233e-05
9 *62:10 *63:10 0.00024503
*RES
1 *372:Y *63:10 46.0786 
2 *63:10 *373:A0 40.0507 
*END

*D_NET *64 0.000448828
*CONN
*I *374:B I *D sky130_fd_sc_hd__xor2_1
*I *373:X O *D sky130_fd_sc_hd__mux2_1
*CAP
1 *374:B 6.67083e-05
2 *373:X 4.19191e-05
3 *64:8 0.000108627
4 *64:8 *95:12 8.78864e-05
5 *64:8 *150:28 8.78864e-05
6 *374:A *374:B 5.58003e-05
*RES
1 *373:X *64:8 39.2014 
2 *64:8 *374:B 39.4707 
*END

*D_NET *65 0.00403298
*CONN
*I *376:A3 I *D sky130_fd_sc_hd__a31o_1
*I *375:B1 I *D sky130_fd_sc_hd__a21oi_1
*I *374:X O *D sky130_fd_sc_hd__xor2_1
*CAP
1 *376:A3 0
2 *375:B1 0.000264626
3 *374:X 4.64665e-05
4 *65:14 0.00107356
5 *65:8 0.000855404
6 *375:B1 *67:8 4.11274e-05
7 *375:B1 *107:66 5.74266e-05
8 *375:B1 *123:47 0.000204854
9 *375:B1 *133:102 0.000424678
10 *65:14 *95:12 7.05033e-05
11 *65:14 *111:32 0.000318853
12 *65:14 *128:79 0.000237617
13 *65:14 *128:96 0.000107232
14 *65:14 *133:102 5.29888e-05
15 *65:14 *133:117 0
16 *65:14 *150:28 0.000158796
17 *374:A *65:8 0.000100061
18 *375:A1 *375:B1 1.8788e-05
*RES
1 *374:X *65:8 39.0979 
2 *65:8 *65:14 15.4736 
3 *65:14 *375:B1 45.8714 
4 *65:14 *376:A3 38 
*END

*D_NET *66 0.000848382
*CONN
*I *377:A1_N I *D sky130_fd_sc_hd__a2bb2o_1
*I *375:Y O *D sky130_fd_sc_hd__a21oi_1
*CAP
1 *377:A1_N 8.99958e-05
2 *375:Y 0.000130665
3 *66:10 0.000220661
4 *377:A1_N *377:A2_N 1.3523e-05
5 *377:A1_N *377:B2 0.000181801
6 *377:A1_N *112:8 1.59094e-05
7 *66:10 *107:66 6.13367e-05
8 *66:10 *133:102 0.00013449
*RES
1 *375:Y *66:10 40.5634 
2 *66:10 *377:A1_N 40.0507 
*END

*D_NET *67 0.000375298
*CONN
*I *377:A2_N I *D sky130_fd_sc_hd__a2bb2o_1
*I *376:X O *D sky130_fd_sc_hd__a31o_1
*CAP
1 *377:A2_N 7.9976e-05
2 *376:X 6.80022e-05
3 *67:8 0.000147978
4 *377:A2_N *377:B2 2.46906e-05
5 *375:B1 *67:8 4.11274e-05
6 *377:A1_N *377:A2_N 1.3523e-05
*RES
1 *376:X *67:8 39.2014 
2 *67:8 *377:A2_N 39.9679 
*END

*D_NET *68 0.000728194
*CONN
*I *379:A I *D sky130_fd_sc_hd__clkbuf_1
*I *378:X O *D sky130_fd_sc_hd__or2_1
*CAP
1 *379:A 4.65892e-05
2 *378:X 0.000136754
3 *68:10 0.000183343
4 *379:A *323:A 1.12796e-05
5 *379:A *77:15 3.22879e-05
6 *379:A *146:12 5.2273e-05
7 *68:10 *378:A 9.41704e-05
8 *68:10 *108:70 8.57485e-05
9 *68:10 *146:12 8.57485e-05
*RES
1 *378:X *68:10 40.2993 
2 *68:10 *379:A 39.4707 
*END

*D_NET *69 0.000190921
*CONN
*I *381:A I *D sky130_fd_sc_hd__clkbuf_1
*I *380:X O *D sky130_fd_sc_hd__and2_1
*CAP
1 *381:A 4.52219e-05
2 *380:X 4.52219e-05
3 *381:A *147:6 0.000100477
*RES
1 *380:X *381:A 47.0979 
*END

*D_NET *70 0.000403894
*CONN
*I *383:A I *D sky130_fd_sc_hd__clkbuf_1
*I *382:X O *D sky130_fd_sc_hd__or2_1
*CAP
1 *383:A 0.00017568
2 *382:X 0.00017568
3 *383:A *343:A 5.25338e-05
*RES
1 *382:X *383:A 49.5007 
*END

*D_NET *71 0.00182205
*CONN
*I *385:A I *D sky130_fd_sc_hd__clkbuf_1
*I *384:X O *D sky130_fd_sc_hd__and2_1
*CAP
1 *385:A 1.08631e-05
2 *384:X 0.000470374
3 *71:10 0.000481237
4 *385:A *448:A 5.67058e-05
5 *385:A *108:99 5.50106e-05
6 *71:10 *398:CLK 1.17152e-05
7 *71:10 *409:CLK 1.92253e-05
8 *71:10 *413:CLK 9.48381e-06
9 *71:10 *125:10 3.62219e-05
10 *71:10 *126:10 0.000168635
11 *409:D *71:10 0.000146676
12 *26:10 *71:10 5.77452e-05
13 *53:8 *71:10 0.000298159
*RES
1 *384:X *71:10 47.0314 
2 *71:10 *385:A 38.6214 
*END
