*SPEF "ieee 1481-1999"
*DESIGN "riscv32"
*DATE "11:11:11 Fri 11 11, 1111"
*VENDOR "OpenRCX"
*PROGRAM "Parallel Extraction"
*VERSION "1.0"
*DESIGN_FLOW "NAME_SCOPE LOCAL" "PIN_CAP NONE"
*DIVIDER /
*DELIMITER :
*BUS_DELIMITER []
*T_UNIT 1 NS
*C_UNIT 1 PF
*R_UNIT 1 OHM
*L_UNIT 1 HENRY

*NAME_MAP
*1 R0[0]
*2 R0[1]
*3 R0[2]
*4 R0[3]
*5 R1[0]
*6 R1[1]
*7 R1[2]
*8 R1[3]
*9 R2[0]
*10 R2[1]
*11 R2[2]
*12 R2[3]
*13 R3[0]
*14 R3[1]
*15 R3[2]
*16 R3[3]
*17 clk
*19 halt
*20 instr[0]
*21 instr[1]
*22 instr[2]
*23 instr[3]
*24 instr[4]
*25 instr[5]
*26 instr[6]
*27 instr[7]
*28 pc[0]
*29 pc[1]
*30 pc[2]
*31 pc[3]
*32 reset
*34 _000_
*35 _001_
*36 _002_
*37 _003_
*38 _004_
*39 _005_
*40 _006_
*41 _007_
*42 _008_
*43 _009_
*44 _010_
*45 _011_
*46 _012_
*47 _013_
*48 _014_
*49 _015_
*50 _016_
*51 _017_
*52 _018_
*53 _019_
*54 _020_
*55 _021_
*56 _022_
*57 _023_
*58 _024_
*59 _025_
*60 _026_
*61 _027_
*62 _028_
*63 _029_
*64 _030_
*65 _031_
*66 _032_
*67 _033_
*68 _034_
*69 _035_
*70 _036_
*71 _037_
*72 _038_
*73 _039_
*74 _040_
*75 _041_
*76 _042_
*77 _043_
*78 _044_
*79 _045_
*80 _046_
*81 _047_
*82 _048_
*83 _049_
*84 _050_
*85 _051_
*86 _052_
*87 _053_
*88 _054_
*89 _055_
*90 _056_
*91 _057_
*92 _058_
*93 _059_
*94 _060_
*95 _061_
*96 _062_
*97 _063_
*98 _064_
*99 _065_
*100 _066_
*101 _067_
*102 _068_
*103 _069_
*104 _070_
*105 _071_
*106 clknet_0_clk
*107 clknet_1_0__leaf_clk
*108 clknet_1_1__leaf_clk
*109 net1
*110 net10
*111 net11
*112 net12
*113 net13
*114 net14
*115 net15
*116 net16
*117 net17
*118 net18
*119 net19
*120 net2
*121 net20
*122 net21
*123 net22
*124 net23
*125 net24
*126 net25
*127 net26
*128 net27
*129 net28
*130 net29
*131 net3
*132 net30
*133 net31
*134 net32
*135 net33
*136 net34
*137 net35
*138 net36
*139 net37
*140 net38
*141 net39
*142 net4
*143 net40
*144 net41
*145 net42
*146 net43
*147 net44
*148 net45
*149 net46
*150 net5
*151 net6
*152 net7
*153 net8
*154 net9
*155 FILLER_0_0_20
*156 FILLER_0_0_3
*157 FILLER_0_0_37
*158 FILLER_0_0_49
*159 FILLER_0_0_62
*160 FILLER_0_0_66
*161 FILLER_0_0_79
*162 FILLER_0_0_83
*163 FILLER_0_0_91
*164 FILLER_0_10_12
*165 FILLER_0_10_26
*166 FILLER_0_10_43
*167 FILLER_0_10_51
*168 FILLER_0_10_57
*169 FILLER_0_10_68
*170 FILLER_0_10_79
*171 FILLER_0_10_83
*172 FILLER_0_10_85
*173 FILLER_0_11_10
*174 FILLER_0_11_57
*175 FILLER_0_11_69
*176 FILLER_0_11_81
*177 FILLER_0_11_93
*178 FILLER_0_12_29
*179 FILLER_0_12_3
*180 FILLER_0_12_41
*181 FILLER_0_12_49
*182 FILLER_0_12_85
*183 FILLER_0_13_11
*184 FILLER_0_13_23
*185 FILLER_0_13_28
*186 FILLER_0_13_3
*187 FILLER_0_13_36
*188 FILLER_0_13_48
*189 FILLER_0_13_52
*190 FILLER_0_13_70
*191 FILLER_0_14_37
*192 FILLER_0_15_15
*193 FILLER_0_15_26
*194 FILLER_0_15_29
*195 FILLER_0_15_37
*196 FILLER_0_15_49
*197 FILLER_0_15_55
*198 FILLER_0_15_63
*199 FILLER_0_15_72
*200 FILLER_0_15_82
*201 FILLER_0_15_91
*202 FILLER_0_1_55
*203 FILLER_0_1_57
*204 FILLER_0_1_83
*205 FILLER_0_1_9
*206 FILLER_0_1_90
*207 FILLER_0_2_27
*208 FILLER_0_2_40
*209 FILLER_0_2_73
*210 FILLER_0_2_77
*211 FILLER_0_2_9
*212 FILLER_0_2_93
*213 FILLER_0_3_18
*214 FILLER_0_3_27
*215 FILLER_0_3_3
*216 FILLER_0_3_40
*217 FILLER_0_3_57
*218 FILLER_0_3_68
*219 FILLER_0_3_76
*220 FILLER_0_4_19
*221 FILLER_0_4_27
*222 FILLER_0_4_29
*223 FILLER_0_4_40
*224 FILLER_0_4_47
*225 FILLER_0_4_59
*226 FILLER_0_4_63
*227 FILLER_0_4_74
*228 FILLER_0_4_85
*229 FILLER_0_5_17
*230 FILLER_0_5_29
*231 FILLER_0_5_3
*232 FILLER_0_5_36
*233 FILLER_0_5_43
*234 FILLER_0_5_55
*235 FILLER_0_6_29
*236 FILLER_0_6_3
*237 FILLER_0_6_37
*238 FILLER_0_6_45
*239 FILLER_0_6_49
*240 FILLER_0_6_65
*241 FILLER_0_6_72
*242 FILLER_0_6_76
*243 FILLER_0_6_93
*244 FILLER_0_7_28
*245 FILLER_0_7_51
*246 FILLER_0_7_55
*247 FILLER_0_7_57
*248 FILLER_0_7_66
*249 FILLER_0_7_74
*250 FILLER_0_7_92
*251 FILLER_0_8_23
*252 FILLER_0_8_37
*253 FILLER_0_8_68
*254 FILLER_0_8_93
*255 FILLER_0_9_15
*256 FILLER_0_9_3
*257 FILLER_0_9_48
*258 PHY_0
*259 PHY_1
*260 PHY_10
*261 PHY_11
*262 PHY_12
*263 PHY_13
*264 PHY_14
*265 PHY_15
*266 PHY_16
*267 PHY_17
*268 PHY_18
*269 PHY_19
*270 PHY_2
*271 PHY_20
*272 PHY_21
*273 PHY_22
*274 PHY_23
*275 PHY_24
*276 PHY_25
*277 PHY_26
*278 PHY_27
*279 PHY_28
*280 PHY_29
*281 PHY_3
*282 PHY_30
*283 PHY_31
*284 PHY_4
*285 PHY_5
*286 PHY_6
*287 PHY_7
*288 PHY_8
*289 PHY_9
*290 TAP_32
*291 TAP_33
*292 TAP_34
*293 TAP_35
*294 TAP_36
*295 TAP_37
*296 TAP_38
*297 TAP_39
*298 TAP_40
*299 TAP_41
*300 TAP_42
*301 TAP_43
*302 TAP_44
*303 TAP_45
*304 TAP_46
*305 TAP_47
*306 TAP_48
*307 TAP_49
*308 TAP_50
*309 TAP_51
*310 TAP_52
*311 TAP_53
*312 TAP_54
*313 TAP_55
*314 TAP_56
*315 TAP_57
*316 TAP_58
*317 _072_
*318 _073_
*319 _074_
*320 _075_
*321 _076_
*322 _077_
*323 _078_
*324 _079_
*325 _080_
*326 _081_
*327 _082_
*328 _083_
*329 _084_
*330 _085_
*331 _086_
*332 _087_
*333 _088_
*334 _089_
*335 _090_
*336 _091_
*337 _092_
*338 _093_
*339 _094_
*340 _095_
*341 _096_
*342 _097_
*343 _098_
*344 _099_
*345 _100_
*346 _101_
*347 _102_
*348 _103_
*349 _104_
*350 _105_
*351 _106_
*352 _107_
*353 _108_
*354 _109_
*355 _110_
*356 _111_
*357 _112_
*358 _113_
*359 _114_
*360 _115_
*361 _116_
*362 _117_
*363 _118_
*364 _119_
*365 _120_
*366 _121_
*367 _122_
*368 _123_
*369 _124_
*370 _125_
*371 _126_
*372 _127_
*373 _128_
*374 _129_
*375 _130_
*376 _131_
*377 _132_
*378 _133_
*379 _134_
*380 _135_
*381 _136_
*382 _137_
*383 _138_
*384 _139_
*385 _140_
*386 _141_
*387 _142_
*388 _143_
*389 _144_
*390 _145_
*391 _146_
*392 _147_
*393 _148_
*394 _149_
*395 _150_
*396 _151_
*397 _152_
*398 _153_
*399 _154_
*400 _155_
*401 _156_
*402 _157_
*403 _158_
*404 _159_
*405 _160_
*406 _161_
*407 _162_
*408 _163_
*409 _164_
*410 _165_
*411 _166_
*412 _167_
*413 _168_
*414 _169_
*415 _170_
*416 _171_
*417 _172_
*418 clkbuf_0_clk
*419 clkbuf_1_0__f_clk
*420 clkbuf_1_1__f_clk
*421 fanout31
*422 hold1
*423 hold10
*424 hold11
*425 hold12
*426 hold13
*427 hold14
*428 hold15
*429 hold2
*430 hold3
*431 hold4
*432 hold5
*433 hold6
*434 hold7
*435 hold8
*436 hold9
*437 input1
*438 output10
*439 output11
*440 output12
*441 output13
*442 output14
*443 output15
*444 output16
*445 output17
*446 output18
*447 output19
*448 output2
*449 output20
*450 output21
*451 output22
*452 output23
*453 output24
*454 output25
*455 output26
*456 output27
*457 output28
*458 output29
*459 output3
*460 output30
*461 output4
*462 output5
*463 output6
*464 output7
*465 output8
*466 output9

*PORTS
R0[0] O
R0[1] O
R0[2] O
R0[3] O
R1[0] O
R1[1] O
R1[2] O
R1[3] O
R2[0] O
R2[1] O
R2[2] O
R2[3] O
R3[0] O
R3[1] O
R3[2] O
R3[3] O
clk I
halt O
instr[0] O
instr[1] O
instr[2] O
instr[3] O
instr[4] O
instr[5] O
instr[6] O
instr[7] O
pc[0] O
pc[1] O
pc[2] O
pc[3] O
reset I

*D_NET *1 0.00113897
*CONN
*P R0[0] O
*I *448:X O *D sky130_fd_sc_hd__buf_2
*CAP
1 R0[0] 0.00056386
2 *448:X 0.00056386
3 R0[0] R0[3] 0
4 R0[0] R2[0] 0
5 R0[0] *432:A 5.83121e-06
6 R0[0] *448:A 5.4155e-06
*RES
1 *448:X R0[0] 9.16503 
*END

*D_NET *2 0.000656106
*CONN
*P R0[1] O
*I *459:X O *D sky130_fd_sc_hd__clkbuf_4
*CAP
1 R0[1] 0.000328053
2 *459:X 0.000328053
3 R0[1] *371:A1 0
*RES
1 *459:X R0[1] 9.39 
*END

*D_NET *3 0.00106861
*CONN
*P R0[2] O
*I *461:X O *D sky130_fd_sc_hd__clkbuf_4
*CAP
1 R0[2] 0.000327076
2 *461:X 0.000327076
3 R0[2] instr[0] 0
4 R0[2] instr[2] 3.72081e-05
5 R0[2] instr[5] 0.000262597
6 R0[2] *414:A 0.000114649
*RES
1 *461:X R0[2] 7.96503 
*END

*D_NET *4 0.000806121
*CONN
*P R0[3] O
*I *462:X O *D sky130_fd_sc_hd__clkbuf_4
*CAP
1 R0[3] 0.000323163
2 *462:X 0.000323163
3 R0[3] *150:10 0.000159795
4 R0[0] R0[3] 0
*RES
1 *462:X R0[3] 6.72523 
*END

*D_NET *5 0.000922892
*CONN
*P R1[0] O
*I *463:X O *D sky130_fd_sc_hd__clkbuf_4
*CAP
1 R1[0] 0.000456446
2 *463:X 0.000456446
3 R1[0] *384:A 1.00001e-05
*RES
1 *463:X R1[0] 11.205 
*END

*D_NET *6 0.000665522
*CONN
*P R1[1] O
*I *464:X O *D sky130_fd_sc_hd__clkbuf_4
*CAP
1 R1[1] 0.000332761
2 *464:X 0.000332761
3 R1[1] halt 0
*RES
1 *464:X R1[1] 9.39 
*END

*D_NET *7 0.00159573
*CONN
*P R1[2] O
*I *465:X O *D sky130_fd_sc_hd__clkbuf_4
*CAP
1 R1[2] 0.000514827
2 *465:X 0.000514827
3 R1[2] instr[1] 0.000258058
4 R1[2] *399:CLK 0.000308021
5 R1[2] *418:A 0
*RES
1 *465:X R1[2] 11.6972 
*END

*D_NET *8 0.00130568
*CONN
*P R1[3] O
*I *466:X O *D sky130_fd_sc_hd__clkbuf_4
*CAP
1 R1[3] 0.000541164
2 *466:X 0.000541164
3 R1[3] R2[0] 0.000223348
4 R1[3] instr[6] 0
*RES
1 *466:X R1[3] 11.1398 
*END

*D_NET *9 0.00217702
*CONN
*P R2[0] O
*I *438:X O *D sky130_fd_sc_hd__clkbuf_4
*CAP
1 R2[0] 0.000747247
2 *438:X 0.000747247
3 R2[0] instr[6] 0
4 R2[0] *337:A 0.000459173
5 R2[0] *432:A 0
6 R2[0] *442:A 0
7 R0[0] R2[0] 0
8 R1[3] R2[0] 0.000223348
*RES
1 *438:X R2[0] 19.47 
*END

*D_NET *10 0.00148175
*CONN
*P R2[1] O
*I *439:X O *D sky130_fd_sc_hd__clkbuf_4
*CAP
1 R2[1] 0.000495145
2 *439:X 0.000495145
3 R2[1] instr[3] 0
4 R2[1] *437:A 0
5 R2[1] *111:14 0.000144195
6 R2[1] *111:18 0.000347269
*RES
1 *439:X R2[1] 10.4135 
*END

*D_NET *11 0.00166675
*CONN
*P R2[2] O
*I *440:X O *D sky130_fd_sc_hd__clkbuf_4
*CAP
1 R2[2] 0.000809821
2 *440:X 0.000809821
3 R2[2] instr[1] 4.71087e-05
*RES
1 *440:X R2[2] 17.055 
*END

*D_NET *12 0.00249034
*CONN
*P R2[3] O
*I *441:X O *D sky130_fd_sc_hd__clkbuf_4
*CAP
1 R2[3] 0.0011486
2 *441:X 0.0011486
3 R2[3] *457:A 0.00012657
4 R2[3] *113:14 6.6564e-05
*RES
1 *441:X R2[3] 22.68 
*END

*D_NET *13 0.00145949
*CONN
*P R3[0] O
*I *442:X O *D sky130_fd_sc_hd__clkbuf_4
*CAP
1 R3[0] 0.000717244
2 *442:X 0.000717244
3 R3[0] *442:A 2.50059e-05
*RES
1 *442:X R3[0] 15.315 
*END

*D_NET *14 0.00108384
*CONN
*P R3[1] O
*I *443:X O *D sky130_fd_sc_hd__clkbuf_4
*CAP
1 R3[1] 0.000479944
2 *443:X 0.000479944
3 R3[1] *115:8 0.000123957
*RES
1 *443:X R3[1] 12.285 
*END

*D_NET *15 0.000978495
*CONN
*P R3[2] O
*I *444:X O *D sky130_fd_sc_hd__clkbuf_4
*CAP
1 R3[2] 0.000446027
2 *444:X 0.000446027
3 R3[2] pc[3] 8.64421e-05
*RES
1 *444:X R3[2] 11.205 
*END

*D_NET *16 0.00108398
*CONN
*P R3[3] O
*I *445:X O *D sky130_fd_sc_hd__clkbuf_4
*CAP
1 R3[3] 0.000541989
2 *445:X 0.000541989
3 R3[3] pc[2] 0
4 R3[3] *117:8 0
*RES
1 *445:X R3[3] 7.34023 
*END

*D_NET *17 0.00672783
*CONN
*P clk I
*I *418:A I *D sky130_fd_sc_hd__clkbuf_16
*CAP
1 clk 0.00288495
2 *418:A 0.00288495
3 *418:A *361:B 0.000153816
4 *418:A *391:A 2.78125e-05
5 *418:A *419:A 0
6 *418:A *76:29 8.41307e-05
7 *418:A *76:36 0.00010837
8 *418:A *101:14 5.83121e-06
9 *418:A *121:8 8.34653e-05
10 *418:A *124:20 0.000308057
11 *418:A *128:24 0.000165659
12 *418:A *133:57 2.0794e-05
13 R1[2] *418:A 0
*RES
1 clk *418:A 16.2456 
*END

*D_NET *19 0.00204583
*CONN
*P halt O
*I *446:X O *D sky130_fd_sc_hd__clkbuf_4
*CAP
1 halt 0.00102292
2 *446:X 0.00102292
3 halt pc[1] 0
4 halt *113:14 0
5 R1[1] halt 0
*RES
1 *446:X halt 15.236 
*END

*D_NET *20 0.000627355
*CONN
*P instr[0] O
*I *447:X O *D sky130_fd_sc_hd__clkbuf_4
*CAP
1 instr[0] 0.000313677
2 *447:X 0.000313677
3 instr[0] *331:B 0
4 R0[2] instr[0] 0
*RES
1 *447:X instr[0] 7.24043 
*END

*D_NET *21 0.00156114
*CONN
*P instr[1] O
*I *449:X O *D sky130_fd_sc_hd__clkbuf_4
*CAP
1 instr[1] 0.000591953
2 *449:X 0.000591953
3 instr[1] *440:A 7.20669e-05
4 instr[1] *449:A 0
5 R1[2] instr[1] 0.000258058
6 R2[2] instr[1] 4.71087e-05
*RES
1 *449:X instr[1] 15.165 
*END

*D_NET *22 0.00260062
*CONN
*P instr[2] O
*I *450:X O *D sky130_fd_sc_hd__clkbuf_4
*CAP
1 instr[2] 0.00106257
2 *450:X 0.00106257
3 instr[2] instr[5] 0.000162343
4 instr[2] *400:CLK 0.00014072
5 instr[2] *431:A 7.00463e-05
6 instr[2] *450:A 6.51601e-05
7 R0[2] instr[2] 3.72081e-05
*RES
1 *450:X instr[2] 20.145 
*END

*D_NET *23 0.000911874
*CONN
*P instr[3] O
*I *451:X O *D sky130_fd_sc_hd__clkbuf_4
*CAP
1 instr[3] 0.000455937
2 *451:X 0.000455937
3 R2[1] instr[3] 0
*RES
1 *451:X instr[3] 7.02177 
*END

*D_NET *24 0.000912475
*CONN
*P instr[4] O
*I *452:X O *D sky130_fd_sc_hd__clkbuf_4
*CAP
1 instr[4] 0.000410694
2 *452:X 0.000410694
3 instr[4] *452:A 4.21579e-05
4 instr[4] *131:67 4.89295e-05
*RES
1 *452:X instr[4] 10.785 
*END

*D_NET *25 0.00155267
*CONN
*P instr[5] O
*I *453:X O *D sky130_fd_sc_hd__clkbuf_4
*CAP
1 instr[5] 0.000563866
2 *453:X 0.000563866
3 instr[5] pc[3] 0
4 R0[2] instr[5] 0.000262597
5 instr[2] instr[5] 0.000162343
*RES
1 *453:X instr[5] 12.3583 
*END

*D_NET *26 0.00268658
*CONN
*P instr[6] O
*I *454:X O *D sky130_fd_sc_hd__clkbuf_4
*CAP
1 instr[6] 0.0011502
2 *454:X 0.0011502
3 instr[6] *337:A 0
4 instr[6] *370:A 7.0165e-05
5 instr[6] *385:A 5.51172e-05
6 instr[6] *398:CLK 5.4003e-05
7 instr[6] *409:D 6.54361e-06
8 instr[6] *454:A 7.64339e-05
9 instr[6] *154:25 0.000123922
10 R1[3] instr[6] 0
11 R2[0] instr[6] 0
*RES
1 *454:X instr[6] 11.7256 
*END

*D_NET *27 0.000986872
*CONN
*P instr[7] O
*I *455:X O *D sky130_fd_sc_hd__clkbuf_4
*CAP
1 instr[7] 0.000493436
2 *455:X 0.000493436
3 instr[7] pc[3] 0
*RES
1 *455:X instr[7] 11.55 
*END

*D_NET *28 0.00129643
*CONN
*P pc[0] O
*I *456:X O *D sky130_fd_sc_hd__clkbuf_4
*CAP
1 pc[0] 0.000567509
2 *456:X 0.000567509
3 pc[0] *456:A 0.000161413
*RES
1 *456:X pc[0] 12.93 
*END

*D_NET *29 0.000949645
*CONN
*P pc[1] O
*I *457:X O *D sky130_fd_sc_hd__clkbuf_4
*CAP
1 pc[1] 0.000412372
2 *457:X 0.000412372
3 pc[1] *113:14 0.0001249
4 halt pc[1] 0
*RES
1 *457:X pc[1] 10.53 
*END

*D_NET *30 0.000643967
*CONN
*P pc[2] O
*I *458:X O *D sky130_fd_sc_hd__clkbuf_4
*CAP
1 pc[2] 0.000321984
2 *458:X 0.000321984
3 R3[3] pc[2] 0
*RES
1 *458:X pc[2] 8.17043 
*END

*D_NET *31 0.00284287
*CONN
*P pc[3] O
*I *460:X O *D sky130_fd_sc_hd__clkbuf_4
*CAP
1 pc[3] 0.00123078
2 *460:X 0.00123078
3 pc[3] *460:A 0.000272866
4 pc[3] *461:A 2.20014e-05
5 R3[2] pc[3] 8.64421e-05
6 instr[5] pc[3] 0
7 instr[7] pc[3] 0
*RES
1 *460:X pc[3] 17.9856 
*END

*D_NET *32 0.000648317
*CONN
*P reset I
*I *437:A I *D sky130_fd_sc_hd__clkbuf_2
*CAP
1 reset 0.000324158
2 *437:A 0.000324158
3 R2[1] *437:A 0
*RES
1 reset *437:A 7.26697 
*END

*D_NET *34 0.000668544
*CONN
*I *394:D I *D sky130_fd_sc_hd__dfrtp_4
*I *319:A I *D sky130_fd_sc_hd__nor2_2
*I *317:Y O *D sky130_fd_sc_hd__inv_2
*CAP
1 *394:D 0
2 *319:A 9.28608e-05
3 *317:Y 0.000149964
4 *34:12 0.000242824
5 *319:A *328:B 9.12671e-06
6 *319:A *394:CLK 9.13949e-06
7 *319:A *108:14 4.57056e-05
8 *319:A *108:20 1.77665e-05
9 *34:12 *108:12 4.04613e-05
10 *34:12 *108:14 1.77595e-05
11 *34:12 *108:49 4.29365e-05
*RES
1 *317:Y *34:12 8.465 
2 *34:12 *319:A 3.445 
3 *34:12 *394:D 1.6 
*END

*D_NET *35 0.00170718
*CONN
*I *395:D I *D sky130_fd_sc_hd__dfrtp_1
*I *371:B1 I *D sky130_fd_sc_hd__o221a_1
*I *327:Y O *D sky130_fd_sc_hd__nand2_1
*CAP
1 *395:D 0.000203403
2 *371:B1 0.000318263
3 *327:Y 3.37765e-05
4 *35:8 0.000555442
5 *371:B1 *327:A 4.48696e-05
6 *371:B1 *345:B 2.739e-05
7 *371:B1 *371:A1 0.000211564
8 *371:B1 *371:C1 9.12671e-06
9 *371:B1 *374:A 0.00012281
10 *371:B1 *79:111 4.01821e-05
11 *371:B1 *79:120 3.56695e-05
12 *371:B1 *150:18 5.68971e-05
13 *395:D *77:23 0
14 *395:D *125:31 0
15 *35:8 *79:120 4.77807e-05
*RES
1 *327:Y *35:8 4.05 
2 *35:8 *371:B1 9.6 
3 *35:8 *395:D 6.765 
*END

*D_NET *36 0.000513157
*CONN
*I *396:D I *D sky130_fd_sc_hd__dfrtp_1
*I *330:Y O *D sky130_fd_sc_hd__nor2_1
*CAP
1 *396:D 0.000190576
2 *330:Y 0.000190576
3 *396:D *396:CLK 9.50907e-05
4 *396:D *81:14 3.69144e-05
*RES
1 *330:Y *396:D 10.425 
*END

*D_NET *37 0.000378801
*CONN
*I *397:D I *D sky130_fd_sc_hd__dfrtp_1
*I *331:X O *D sky130_fd_sc_hd__xor2_1
*CAP
1 *397:D 0.000115454
2 *331:X 0.000115454
3 *397:D *331:A 0.000147893
4 *397:D *108:20 0
*RES
1 *331:X *397:D 9.645 
*END

*D_NET *38 0.000433635
*CONN
*I *394:RESET_B I *D sky130_fd_sc_hd__dfrtp_4
*I *332:Y O *D sky130_fd_sc_hd__inv_2
*CAP
1 *394:RESET_B 7.76473e-05
2 *332:Y 7.76473e-05
3 *394:RESET_B *317:A 2.88357e-05
4 *394:RESET_B *109:26 0.00015897
5 *394:RESET_B *133:20 9.05349e-05
*RES
1 *332:Y *394:RESET_B 7.94 
*END

*D_NET *39 0.000379756
*CONN
*I *395:RESET_B I *D sky130_fd_sc_hd__dfrtp_1
*I *333:Y O *D sky130_fd_sc_hd__inv_2
*CAP
1 *395:RESET_B 3.82819e-05
2 *333:Y 3.82819e-05
3 *395:RESET_B *108:99 0.000112222
4 *395:RESET_B *109:16 0.00019097
*RES
1 *333:Y *395:RESET_B 3.3775 
*END

*D_NET *40 0.000394276
*CONN
*I *396:RESET_B I *D sky130_fd_sc_hd__dfrtp_1
*I *334:Y O *D sky130_fd_sc_hd__inv_2
*CAP
1 *396:RESET_B 0.000140955
2 *334:Y 0.000140955
3 *396:RESET_B *396:CLK 3.27888e-05
4 *396:RESET_B *130:14 7.9576e-05
*RES
1 *334:Y *396:RESET_B 7.9775 
*END

*D_NET *41 0.000267719
*CONN
*I *397:RESET_B I *D sky130_fd_sc_hd__dfrtp_1
*I *335:Y O *D sky130_fd_sc_hd__inv_2
*CAP
1 *397:RESET_B 9.52161e-05
2 *335:Y 9.52161e-05
3 *397:RESET_B *453:A 5.34747e-05
4 *397:RESET_B *132:10 2.38118e-05
*RES
1 *335:Y *397:RESET_B 3.3775 
*END

*D_NET *42 0.000416106
*CONN
*I *398:D I *D sky130_fd_sc_hd__dfxtp_1
*I *337:X O *D sky130_fd_sc_hd__clkbuf_1
*CAP
1 *398:D 0.000183679
2 *337:X 0.000183679
3 *398:D *337:A 4.87479e-05
*RES
1 *337:X *398:D 9.84375 
*END

*D_NET *43 0.00114889
*CONN
*I *399:D I *D sky130_fd_sc_hd__dfxtp_1
*I *339:X O *D sky130_fd_sc_hd__clkbuf_1
*CAP
1 *399:D 0.000574444
2 *339:X 0.000574444
3 *399:D *399:CLK 0
*RES
1 *339:X *399:D 15.8138 
*END

*D_NET *44 0.00046962
*CONN
*I *400:D I *D sky130_fd_sc_hd__dfxtp_1
*I *341:X O *D sky130_fd_sc_hd__clkbuf_1
*CAP
1 *400:D 9.37086e-05
2 *341:X 9.37086e-05
3 *400:D *400:CLK 0.000155728
4 *400:D *450:A 0.000126474
*RES
1 *341:X *400:D 9.49875 
*END

*D_NET *45 0.000672057
*CONN
*I *401:D I *D sky130_fd_sc_hd__dfxtp_1
*I *343:X O *D sky130_fd_sc_hd__clkbuf_1
*CAP
1 *401:D 0.000334149
2 *343:X 0.000334149
3 *401:D *408:D 3.75882e-06
*RES
1 *343:X *401:D 11.8088 
*END

*D_NET *46 0.000805747
*CONN
*I *402:D I *D sky130_fd_sc_hd__dfxtp_1
*I *346:Y O *D sky130_fd_sc_hd__nand2_1
*CAP
1 *402:D 0.000223419
2 *346:Y 0.000223419
3 *402:D *344:A2 1.21256e-05
4 *402:D *346:A 4.30319e-05
5 *402:D *392:B 0
6 *402:D *393:A 0.000234611
7 *402:D *109:14 6.91402e-05
*RES
1 *346:Y *402:D 11.895 
*END

*D_NET *47 0.00103697
*CONN
*I *403:D I *D sky130_fd_sc_hd__dfxtp_1
*I *358:X O *D sky130_fd_sc_hd__a31o_1
*CAP
1 *403:D 0.000455882
2 *358:X 0.000455882
3 *403:D *358:A1 3.64998e-06
4 *403:D *403:CLK 1.14192e-05
5 *403:D *407:D 2.34174e-05
6 *403:D *446:A 8.67196e-05
*RES
1 *358:X *403:D 13.83 
*END

*D_NET *48 0.000484959
*CONN
*I *404:D I *D sky130_fd_sc_hd__dfxtp_1
*I *368:X O *D sky130_fd_sc_hd__a22o_1
*CAP
1 *404:D 7.14609e-05
2 *368:X 7.14609e-05
3 *404:D *368:A1 1.8535e-05
4 *404:D *368:A2 0.000176586
5 *404:D *107:42 3.02108e-05
6 *404:D *107:57 4.66108e-05
7 *404:D *112:8 1.87026e-05
8 *404:D *121:20 5.13924e-05
*RES
1 *368:X *404:D 9.54375 
*END

*D_NET *49 0.000695236
*CONN
*I *405:D I *D sky130_fd_sc_hd__dfxtp_1
*I *377:X O *D sky130_fd_sc_hd__a2bb2o_1
*CAP
1 *405:D 0.000231411
2 *377:X 0.000231411
3 *405:D *377:B2 0.000195717
4 *405:D *107:81 1.43717e-05
5 *405:D *123:47 0
6 *405:D *123:51 2.23253e-05
*RES
1 *377:X *405:D 10.5487 
*END

*D_NET *50 0.000265851
*CONN
*I *406:D I *D sky130_fd_sc_hd__dfxtp_1
*I *379:X O *D sky130_fd_sc_hd__clkbuf_1
*CAP
1 *406:D 8.77334e-05
2 *379:X 8.77334e-05
3 *406:D *378:A 3.89366e-05
4 *406:D *409:CLK 5.14473e-05
*RES
1 *379:X *406:D 8.80875 
*END

*D_NET *51 0.000294286
*CONN
*I *407:D I *D sky130_fd_sc_hd__dfxtp_1
*I *381:X O *D sky130_fd_sc_hd__clkbuf_1
*CAP
1 *407:D 8.85418e-05
2 *381:X 8.85418e-05
3 *407:D *402:CLK 9.37846e-05
4 *403:D *407:D 2.34174e-05
*RES
1 *381:X *407:D 9.00375 
*END

*D_NET *52 0.000844851
*CONN
*I *408:D I *D sky130_fd_sc_hd__dfxtp_1
*I *383:X O *D sky130_fd_sc_hd__clkbuf_1
*CAP
1 *408:D 0.000152504
2 *383:X 0.000152504
3 *408:D *399:CLK 0.00022771
4 *408:D *465:A 0.000265877
5 *408:D *107:18 4.24963e-05
6 *401:D *408:D 3.75882e-06
*RES
1 *383:X *408:D 11.625 
*END

*D_NET *53 0.000794485
*CONN
*I *409:D I *D sky130_fd_sc_hd__dfxtp_1
*I *385:X O *D sky130_fd_sc_hd__clkbuf_1
*CAP
1 *409:D 0.000156058
2 *385:X 0.000156058
3 *409:D *354:B2 4.19797e-05
4 *409:D *385:A 0.000371236
5 *409:D *463:A 5.40779e-05
6 *409:D *125:10 8.53113e-06
7 instr[6] *409:D 6.54361e-06
*RES
1 *385:X *409:D 11.5387 
*END

*D_NET *54 0.000328176
*CONN
*I *410:D I *D sky130_fd_sc_hd__dfxtp_1
*I *387:X O *D sky130_fd_sc_hd__clkbuf_1
*CAP
1 *410:D 0.000164088
2 *387:X 0.000164088
*RES
1 *387:X *410:D 9.42375 
*END

*D_NET *55 0.000321454
*CONN
*I *411:D I *D sky130_fd_sc_hd__dfxtp_1
*I *389:X O *D sky130_fd_sc_hd__clkbuf_1
*CAP
1 *411:D 8.31506e-05
2 *389:X 8.31506e-05
3 *411:D *364:B1 1.43717e-05
4 *411:D *388:B 7.15297e-05
5 *411:D *449:A 4.82319e-06
6 *411:D *121:20 6.4428e-05
*RES
1 *389:X *411:D 8.97375 
*END

*D_NET *56 0.00106564
*CONN
*I *412:D I *D sky130_fd_sc_hd__dfxtp_1
*I *391:X O *D sky130_fd_sc_hd__clkbuf_1
*CAP
1 *412:D 0.000302233
2 *391:X 0.000302233
3 *412:D *324:A 7.1624e-05
4 *412:D *363:A 4.43977e-05
5 *412:D *363:B 1.89983e-05
6 *412:D *76:29 0.000119153
7 *412:D *107:127 0.000119866
8 *412:D *124:20 7.03219e-05
9 *412:D *142:12 1.68114e-05
*RES
1 *391:X *412:D 12.735 
*END

*D_NET *57 0.000473567
*CONN
*I *413:D I *D sky130_fd_sc_hd__dfxtp_1
*I *393:X O *D sky130_fd_sc_hd__clkbuf_1
*CAP
1 *413:D 0.00014024
2 *393:X 0.00014024
3 *413:D *346:A 5.83121e-06
4 *413:D *413:CLK 7.03219e-05
5 *413:D *109:14 7.03219e-05
6 *413:D *150:18 4.66108e-05
*RES
1 *393:X *413:D 9.55875 
*END

*D_NET *58 0.00308561
*CONN
*I *376:A2 I *D sky130_fd_sc_hd__a31o_1
*I *375:A2 I *D sky130_fd_sc_hd__a21oi_1
*I *368:B1 I *D sky130_fd_sc_hd__a22o_1
*I *366:X O *D sky130_fd_sc_hd__a21o_1
*CAP
1 *376:A2 0.000164442
2 *375:A2 0.000186756
3 *368:B1 9.38089e-05
4 *366:X 3.48248e-05
5 *58:23 0.000595861
6 *58:6 0.000373295
7 *368:B1 *368:A1 6.72636e-05
8 *368:B1 *429:A 3.6227e-05
9 *368:B1 *107:42 4.77757e-05
10 *368:B1 *112:14 3.69171e-05
11 *375:A2 *326:A 0.000153058
12 *375:A2 *375:A1 0.000123961
13 *375:A2 *79:39 0.000156911
14 *375:A2 *107:66 0.000122801
15 *376:A2 *376:A1 2.20014e-05
16 *376:A2 *376:B1 0.000197826
17 *376:A2 *417:A 9.76407e-06
18 *58:6 *429:A 2.10152e-05
19 *58:23 *368:A1 0.000122821
20 *58:23 *376:A1 3.35155e-05
21 *58:23 *376:B1 4.66108e-05
22 *58:23 *429:A 0.000438155
*RES
1 *366:X *58:6 2.05 
2 *58:6 *368:B1 7.685 
3 *58:6 *58:23 5.295 
4 *58:23 *375:A2 10.415 
5 *58:23 *376:A2 4.48 
*END

*D_NET *59 0.00116865
*CONN
*I *368:B2 I *D sky130_fd_sc_hd__a22o_1
*I *367:Y O *D sky130_fd_sc_hd__a31oi_1
*CAP
1 *368:B2 0.000272422
2 *367:Y 0.000272422
3 *368:B2 *364:C1 0.000306426
4 *368:B2 *367:B1 2.79137e-05
5 *368:B2 *429:A 6.23262e-05
6 *368:B2 *60:10 1.79692e-05
7 *368:B2 *102:14 5.83121e-06
8 *368:B2 *107:42 8.35106e-05
9 *368:B2 *112:14 0.000119825
*RES
1 *367:Y *368:B2 12.81 
*END

*D_NET *60 0.00359318
*CONN
*I *376:A1 I *D sky130_fd_sc_hd__a31o_1
*I *375:A1 I *D sky130_fd_sc_hd__a21oi_1
*I *369:Y O *D sky130_fd_sc_hd__nand2_1
*CAP
1 *376:A1 9.06923e-05
2 *375:A1 0.000279997
3 *369:Y 0.000339457
4 *60:10 0.000710146
5 *375:A1 *326:A 8.46818e-05
6 *375:A1 *364:B1 2.17061e-05
7 *375:A1 *371:A1 0.000187172
8 *375:A1 *375:B1 1.75875e-05
9 *375:A1 *411:CLK 5.19006e-06
10 *375:A1 *107:57 4.4495e-05
11 *375:A1 *107:66 5.94878e-05
12 *375:A1 *123:47 0.000309777
13 *376:A1 *376:B1 0.000235348
14 *376:A1 *417:A 0.000138776
15 *376:A1 *429:A 4.77807e-05
16 *376:A1 *79:35 6.62684e-05
17 *60:10 *365:A 1.19928e-05
18 *60:10 *366:A2 8.41384e-05
19 *60:10 *367:B1 2.68464e-05
20 *60:10 *371:A1 0.00011023
21 *60:10 *79:27 0.000341432
22 *60:10 *79:35 0.000157543
23 *60:10 *102:14 2.49909e-05
24 *368:B2 *60:10 1.79692e-05
25 *375:A2 *375:A1 0.000123961
26 *376:A2 *376:A1 2.20014e-05
27 *58:23 *376:A1 3.35155e-05
*RES
1 *369:Y *60:10 11.28 
2 *60:10 *375:A1 11.37 
3 *60:10 *376:A1 7.155 
*END

*D_NET *61 0.00105791
*CONN
*I *371:C1 I *D sky130_fd_sc_hd__o221a_1
*I *370:X O *D sky130_fd_sc_hd__or2_1
*CAP
1 *371:C1 0.000362094
2 *370:X 0.000362094
3 *371:C1 *327:A 0
4 *371:C1 *345:B 2.86975e-05
5 *371:C1 *354:B2 0
6 *371:C1 *371:A2 3.50152e-06
7 *371:C1 *371:B2 9.12494e-06
8 *371:C1 *77:23 0.000234341
9 *371:C1 *150:18 4.89295e-05
10 *371:B1 *371:C1 9.12671e-06
*RES
1 *370:X *371:C1 13.92 
*END

*D_NET *62 0.00176547
*CONN
*I *374:A I *D sky130_fd_sc_hd__xor2_1
*I *371:X O *D sky130_fd_sc_hd__o221a_1
*CAP
1 *374:A 0.000288963
2 *371:X 0.000288963
3 *374:A *371:A1 0.000305247
4 *374:A *373:A0 0.000199184
5 *374:A *374:B 4.77807e-05
6 *374:A *65:14 8.52845e-05
7 *374:A *76:42 0.000343722
8 *374:A *106:12 8.35106e-05
9 *371:B1 *374:A 0.00012281
*RES
1 *371:X *374:A 15.225 
*END

*D_NET *63 0.0013283
*CONN
*I *373:A0 I *D sky130_fd_sc_hd__mux2_1
*I *372:Y O *D sky130_fd_sc_hd__nand2_1
*CAP
1 *373:A0 0.000395644
2 *372:Y 0.000395644
3 *373:A0 *371:A1 5.68531e-05
4 *373:A0 *372:A 3.64998e-06
5 *373:A0 *373:S 4.77757e-05
6 *373:A0 *120:22 0.000160314
7 *373:A0 *128:79 6.92341e-05
8 *374:A *373:A0 0.000199184
*RES
1 *372:Y *373:A0 14.535 
*END

*D_NET *64 0.000355652
*CONN
*I *374:B I *D sky130_fd_sc_hd__xor2_1
*I *373:X O *D sky130_fd_sc_hd__mux2_1
*CAP
1 *374:B 8.23115e-05
2 *373:X 8.23115e-05
3 *374:B *95:12 7.1624e-05
4 *374:B *150:28 7.1624e-05
5 *374:A *374:B 4.77807e-05
*RES
1 *373:X *374:B 9.135 
*END

*D_NET *65 0.00315079
*CONN
*I *376:A3 I *D sky130_fd_sc_hd__a31o_1
*I *375:B1 I *D sky130_fd_sc_hd__a21oi_1
*I *374:X O *D sky130_fd_sc_hd__xor2_1
*CAP
1 *376:A3 0
2 *375:B1 0.000203178
3 *374:X 0.000625116
4 *65:14 0.000828294
5 *375:B1 *377:A2_N 3.89366e-05
6 *375:B1 *417:A 0.00034571
7 *375:B1 *107:66 5.08762e-05
8 *375:B1 *123:47 0.000169141
9 *65:14 *350:A_N 8.90199e-05
10 *65:14 *350:C 0.000260943
11 *65:14 *351:A_N 0
12 *65:14 *417:A 4.28943e-05
13 *65:14 *95:12 6.73556e-05
14 *65:14 *128:79 0.000195287
15 *65:14 *150:28 0.000131168
16 *374:A *65:14 8.52845e-05
17 *375:A1 *375:B1 1.75875e-05
*RES
1 *374:X *65:14 15.6 
2 *65:14 *375:B1 9.3 
3 *65:14 *376:A3 3.6 
*END

*D_NET *66 0.000675164
*CONN
*I *377:A1_N I *D sky130_fd_sc_hd__a2bb2o_1
*I *375:Y O *D sky130_fd_sc_hd__a21oi_1
*CAP
1 *377:A1_N 0.000164286
2 *375:Y 0.000164286
3 *377:A1_N *377:A2_N 1.14169e-05
4 *377:A1_N *377:B2 0.000156758
5 *377:A1_N *417:A 0.00011099
6 *377:A1_N *107:66 5.17837e-05
7 *377:A1_N *112:8 1.56428e-05
*RES
1 *375:Y *377:A1_N 10.5413 
*END

*D_NET *67 0.000313143
*CONN
*I *377:A2_N I *D sky130_fd_sc_hd__a2bb2o_1
*I *376:X O *D sky130_fd_sc_hd__a31o_1
*CAP
1 *377:A2_N 0.000120394
2 *376:X 0.000120394
3 *377:A2_N *377:B2 2.20014e-05
4 *375:B1 *377:A2_N 3.89366e-05
5 *377:A1_N *377:A2_N 1.14169e-05
*RES
1 *376:X *377:A2_N 9.495 
*END

*D_NET *68 0.000576154
*CONN
*I *379:A I *D sky130_fd_sc_hd__clkbuf_1
*I *378:X O *D sky130_fd_sc_hd__or2_1
*CAP
1 *379:A 0.000135644
2 *378:X 0.000135644
3 *379:A *323:A 9.12671e-06
4 *379:A *378:A 0.000195378
5 *379:A *77:15 3.00381e-05
6 *379:A *108:70 7.03219e-05
*RES
1 *378:X *379:A 9.93 
*END

*D_NET *69 0.000158239
*CONN
*I *381:A I *D sky130_fd_sc_hd__clkbuf_1
*I *380:X O *D sky130_fd_sc_hd__and2_1
*CAP
1 *381:A 3.64708e-05
2 *380:X 3.64708e-05
3 *381:A *380:A 8.52972e-05
*RES
1 *380:X *381:A 3.995 
*END

*D_NET *70 0.000347993
*CONN
*I *383:A I *D sky130_fd_sc_hd__clkbuf_1
*I *382:X O *D sky130_fd_sc_hd__or2_1
*CAP
1 *383:A 0.000148466
2 *382:X 0.000148466
3 *383:A *343:A 5.10606e-05
*RES
1 *382:X *383:A 5.735 
*END

*D_NET *71 0.00145693
*CONN
*I *385:A I *D sky130_fd_sc_hd__clkbuf_1
*I *384:X O *D sky130_fd_sc_hd__and2_1
*CAP
1 *385:A 0.000358316
2 *384:X 0.000358316
3 *385:A *398:CLK 1.23331e-05
4 *385:A *409:CLK 1.87038e-05
5 *385:A *413:CLK 1.0183e-05
6 *385:A *448:A 4.99619e-05
7 *385:A *454:A 0.000140256
8 *385:A *108:99 4.82919e-05
9 *385:A *125:10 3.42142e-05
10 instr[6] *385:A 5.51172e-05
11 *409:D *385:A 0.000371236
*RES
1 *384:X *385:A 14.19 
*END

*D_NET *72 0.00047522
*CONN
*I *387:A I *D sky130_fd_sc_hd__clkbuf_1
*I *386:X O *D sky130_fd_sc_hd__or2_1
*CAP
1 *387:A 0.000151704
2 *386:X 0.000151704
3 *387:A *373:S 2.93517e-05
4 *387:A *101:14 2.68464e-05
5 *387:A *128:24 0.000115614
*RES
1 *386:X *387:A 9.72 
*END

*D_NET *73 0.000981083
*CONN
*I *389:A I *D sky130_fd_sc_hd__clkbuf_1
*I *388:X O *D sky130_fd_sc_hd__or2_1
*CAP
1 *389:A 0.00025286
2 *388:X 0.00025286
3 *389:A *371:A1 3.04704e-05
4 *389:A *388:A 4.43603e-05
5 *389:A *388:B 0.000313857
6 *389:A *452:A 1.75875e-05
7 *389:A *131:67 6.90876e-05
*RES
1 *388:X *389:A 8.84 
*END

*D_NET *74 0.00106798
*CONN
*I *391:A I *D sky130_fd_sc_hd__clkbuf_1
*I *390:X O *D sky130_fd_sc_hd__and2_1
*CAP
1 *391:A 0.000456561
2 *390:X 0.000456561
3 *391:A *329:A 3.16707e-06
4 *391:A *419:A 1.79536e-05
5 *391:A *76:29 1.79536e-05
6 *391:A *89:23 5.76341e-06
7 *391:A *128:79 4.88611e-05
8 *391:A *133:28 4.55864e-06
9 *391:A *133:57 9.03508e-06
10 *391:A *142:40 1.97486e-05
11 *418:A *391:A 2.78125e-05
*RES
1 *390:X *391:A 9.96067 
*END

*D_NET *75 0.00128635
*CONN
*I *393:A I *D sky130_fd_sc_hd__clkbuf_1
*I *392:X O *D sky130_fd_sc_hd__and2_1
*CAP
1 *393:A 0.000275708
2 *392:X 0.000275708
3 *393:A *344:A2 0.000131525
4 *393:A *346:A 2.28474e-05
5 *393:A *372:A 2.9236e-05
6 *393:A *402:CLK 2.99101e-05
7 *393:A *413:CLK 8.79638e-05
8 *393:A *87:10 0.000136679
9 *393:A *120:18 6.21647e-05
10 *402:D *393:A 0.000234611
*RES
1 *392:X *393:A 13.8 
*END

*D_NET *76 0.00525062
*CONN
*I *362:A1 I *D sky130_fd_sc_hd__a31o_1
*I *354:A2 I *D sky130_fd_sc_hd__o221a_1
*I *392:B I *D sky130_fd_sc_hd__and2_1
*I *321:A I *D sky130_fd_sc_hd__inv_2
*I *390:B I *D sky130_fd_sc_hd__and2_1
*I *320:X O *D sky130_fd_sc_hd__or2_2
*CAP
1 *362:A1 0.000172623
2 *354:A2 6.01899e-05
3 *392:B 0.000113517
4 *321:A 0
5 *390:B 9.25016e-05
6 *320:X 1.86374e-05
7 *76:42 0.000724871
8 *76:36 0.000769411
9 *76:29 0.000238776
10 *76:6 0.000304291
11 *354:A2 *345:B 1.21329e-05
12 *354:A2 *77:41 0.000177525
13 *354:A2 *120:72 0.000177816
14 *362:A1 *373:S 5.69152e-05
15 *362:A1 *101:14 2.10152e-05
16 *362:A1 *102:14 4.36277e-05
17 *362:A1 *128:24 7.01359e-05
18 *390:B *390:A 4.77769e-05
19 *390:B *396:CLK 2.94466e-05
20 *390:B *435:A 8.54923e-05
21 *390:B *128:28 2.11921e-05
22 *390:B *128:32 1.08758e-05
23 *390:B *133:28 2.5775e-05
24 *392:B *372:A 4.77807e-05
25 *392:B *77:41 9.23578e-05
26 *392:B *95:12 0
27 *76:6 *396:CLK 3.5678e-06
28 *76:29 *361:B 7.01303e-05
29 *76:29 *419:A 5.25655e-05
30 *76:29 *435:A 0.000110492
31 *76:29 *106:12 5.83121e-06
32 *76:29 *128:24 4.38346e-05
33 *76:29 *128:28 0.000120412
34 *76:29 *128:32 1.43622e-05